version 3
run Wireless05-0-20241210-10:54:16-8912
attr configname Wireless05
attr datetime 20241210-10:54:16
attr datetimef 20241210-105416
attr experiment Wireless05
attr inifile omnetpp.ini
attr iterationvars ""
attr iterationvarsd ""
attr iterationvarsf ""
attr measurement ""
attr network WirelessC
attr processid 8912
attr repetition 0
attr replication #0
attr resultdir results
attr runnumber 0
attr seedset 0
config image-path ../../../../../IoTOMNetpp/omnetpp-6.0.3/samples/inet4.3/images
config description "More nodes"
config network WirelessC
config sim-time-limit 200s
config *.host*.ipv4.arp.typename GlobalArp
config *.scenarioManager.script "xmldoc(\"scenarioB.xml\")"
config *.host*.numApps 1
config *.host*.app[0].typename SensorApp
config *.host*.app[0].localPort 5000
config *.host*.wlan[0].typename AckingWirelessInterface
config *.host*.wlan[0].mac.useAck false
config *.host*.wlan[0].mac.fullDuplex false
config *.host*.wlan[0].radio.transmitter.communicationRange 52m
config *.host*.wlan[0].radio.receiver.ignoreInterference true
config *.host*.wlan[0].mac.headerLength 23B
config *.host*.**.bitrate 1Mbps
config *.host*.wlan[0].radio.displayCommunicationRange true
config *.mobileHost.numApps 1
config *.mobileHost.app[0].typename DataCollectorApp
config *.mobileHost.app[0].destAddresses "\"host00 host01 host02 host03 host04 host05 host06 host07 host08 host09 host10 host11 host12 host13 host14 host15 host16 host17 host18 host19\""
config *.mobileHost.app[0].destPort 5000
config *.mobileHost.app[0].localPort 5001
config *.mobileHost.app[0].messageLength 1000B
config *.mobileHost.app[0].sendInterval exponential(10ms)
config *.mobileHost.app[0].packetName "\"UDPData\""
config *.mobileHost.wlan[0].typename AckingWirelessInterface
config *.mobileHost.wlan[0].mac.useAck false
config *.mobileHost.wlan[0].mac.fullDuplex false
config *.mobileHost.wlan[0].radio.transmitter.communicationRange 52m
config *.mobileHost.wlan[0].radio.receiver.ignoreInterference true
config *.mobileHost.wlan[0].mac.headerLength 23B
config *.mobileHost.**.bitrate 1Mbps
config *.mobileHost.wlan[0].radio.displayCommunicationRange true
config **.mobileHost.mobility.typename TurtleMobility
config **.mobileHost.mobility.turtleScript "xmldoc(\"movements.xml\", \"movements//movement[@id='2']\")"
config *.mobileHost.wlan[0].queue.packetCapacity 10
config *.visualizer.mobilityVisualizer.displayVelocities true
config *.visualizer.mobilityVisualizer.displayMovementTrails true
config **.scenarioManager.script "xmldoc(\"scenario.xml\")"

vector 0 WirelessC.mobileHost.wlan[0].mac.queue queueLength:vector ETV
attr autoWarmupFilter false
attr interpolationmode sample-hold
attr recordingmode vector
attr source "warmup(count(packetPushed) - count(packetPulled) - count(packetRemoved) - count(packetDropped))"
attr title "queue length"
attr type int
vector 1 WirelessC.mobileHost.udp passedUpPk:vector(count) ETV
attr interpolationmode none
attr recordingmode vector(count)
attr source packetSentToUpper
attr title "packets passed up, count"
vector 2 WirelessC.mobileHost.udp droppedPkWrongPort:vector(count) ETV
attr interpolationmode none
attr recordingmode vector(count)
attr source packetDropReasonIsNoPortFound(packetDropped)
attr title "packets dropped (wrong port), count"
vector 3 WirelessC.mobileHost.udp droppedPkBadChecksum:vector(count) ETV
attr interpolationmode none
attr recordingmode vector(count)
attr source packetDropReasonIsIncorrectlyReceived(packetDropped)
attr title "packets dropped (checksum error), count"
vector 4 WirelessC.host00.wlan[0].mac.queue queueLength:vector ETV
attr autoWarmupFilter false
attr interpolationmode sample-hold
attr recordingmode vector
attr source "warmup(count(packetPushed) - count(packetPulled) - count(packetRemoved) - count(packetDropped))"
attr title "queue length"
attr type int
vector 5 WirelessC.host00.udp passedUpPk:vector(count) ETV
attr interpolationmode none
attr recordingmode vector(count)
attr source packetSentToUpper
attr title "packets passed up, count"
vector 6 WirelessC.host00.udp droppedPkWrongPort:vector(count) ETV
attr interpolationmode none
attr recordingmode vector(count)
attr source packetDropReasonIsNoPortFound(packetDropped)
attr title "packets dropped (wrong port), count"
vector 7 WirelessC.host00.udp droppedPkBadChecksum:vector(count) ETV
attr interpolationmode none
attr recordingmode vector(count)
attr source packetDropReasonIsIncorrectlyReceived(packetDropped)
attr title "packets dropped (checksum error), count"
vector 8 WirelessC.host01.wlan[0].mac.queue queueLength:vector ETV
attr autoWarmupFilter false
attr interpolationmode sample-hold
attr recordingmode vector
attr source "warmup(count(packetPushed) - count(packetPulled) - count(packetRemoved) - count(packetDropped))"
attr title "queue length"
attr type int
vector 9 WirelessC.host01.udp passedUpPk:vector(count) ETV
attr interpolationmode none
attr recordingmode vector(count)
attr source packetSentToUpper
attr title "packets passed up, count"
vector 10 WirelessC.host01.udp droppedPkWrongPort:vector(count) ETV
attr interpolationmode none
attr recordingmode vector(count)
attr source packetDropReasonIsNoPortFound(packetDropped)
attr title "packets dropped (wrong port), count"
vector 11 WirelessC.host01.udp droppedPkBadChecksum:vector(count) ETV
attr interpolationmode none
attr recordingmode vector(count)
attr source packetDropReasonIsIncorrectlyReceived(packetDropped)
attr title "packets dropped (checksum error), count"
vector 12 WirelessC.host02.wlan[0].mac.queue queueLength:vector ETV
attr autoWarmupFilter false
attr interpolationmode sample-hold
attr recordingmode vector
attr source "warmup(count(packetPushed) - count(packetPulled) - count(packetRemoved) - count(packetDropped))"
attr title "queue length"
attr type int
vector 13 WirelessC.host02.udp passedUpPk:vector(count) ETV
attr interpolationmode none
attr recordingmode vector(count)
attr source packetSentToUpper
attr title "packets passed up, count"
vector 14 WirelessC.host02.udp droppedPkWrongPort:vector(count) ETV
attr interpolationmode none
attr recordingmode vector(count)
attr source packetDropReasonIsNoPortFound(packetDropped)
attr title "packets dropped (wrong port), count"
vector 15 WirelessC.host02.udp droppedPkBadChecksum:vector(count) ETV
attr interpolationmode none
attr recordingmode vector(count)
attr source packetDropReasonIsIncorrectlyReceived(packetDropped)
attr title "packets dropped (checksum error), count"
vector 16 WirelessC.host03.wlan[0].mac.queue queueLength:vector ETV
attr autoWarmupFilter false
attr interpolationmode sample-hold
attr recordingmode vector
attr source "warmup(count(packetPushed) - count(packetPulled) - count(packetRemoved) - count(packetDropped))"
attr title "queue length"
attr type int
vector 17 WirelessC.host03.udp passedUpPk:vector(count) ETV
attr interpolationmode none
attr recordingmode vector(count)
attr source packetSentToUpper
attr title "packets passed up, count"
vector 18 WirelessC.host03.udp droppedPkWrongPort:vector(count) ETV
attr interpolationmode none
attr recordingmode vector(count)
attr source packetDropReasonIsNoPortFound(packetDropped)
attr title "packets dropped (wrong port), count"
vector 19 WirelessC.host03.udp droppedPkBadChecksum:vector(count) ETV
attr interpolationmode none
attr recordingmode vector(count)
attr source packetDropReasonIsIncorrectlyReceived(packetDropped)
attr title "packets dropped (checksum error), count"
vector 20 WirelessC.host04.wlan[0].mac.queue queueLength:vector ETV
attr autoWarmupFilter false
attr interpolationmode sample-hold
attr recordingmode vector
attr source "warmup(count(packetPushed) - count(packetPulled) - count(packetRemoved) - count(packetDropped))"
attr title "queue length"
attr type int
vector 21 WirelessC.host04.udp passedUpPk:vector(count) ETV
attr interpolationmode none
attr recordingmode vector(count)
attr source packetSentToUpper
attr title "packets passed up, count"
vector 22 WirelessC.host04.udp droppedPkWrongPort:vector(count) ETV
attr interpolationmode none
attr recordingmode vector(count)
attr source packetDropReasonIsNoPortFound(packetDropped)
attr title "packets dropped (wrong port), count"
vector 23 WirelessC.host04.udp droppedPkBadChecksum:vector(count) ETV
attr interpolationmode none
attr recordingmode vector(count)
attr source packetDropReasonIsIncorrectlyReceived(packetDropped)
attr title "packets dropped (checksum error), count"
vector 24 WirelessC.host05.wlan[0].mac.queue queueLength:vector ETV
attr autoWarmupFilter false
attr interpolationmode sample-hold
attr recordingmode vector
attr source "warmup(count(packetPushed) - count(packetPulled) - count(packetRemoved) - count(packetDropped))"
attr title "queue length"
attr type int
vector 25 WirelessC.host05.udp passedUpPk:vector(count) ETV
attr interpolationmode none
attr recordingmode vector(count)
attr source packetSentToUpper
attr title "packets passed up, count"
vector 26 WirelessC.host05.udp droppedPkWrongPort:vector(count) ETV
attr interpolationmode none
attr recordingmode vector(count)
attr source packetDropReasonIsNoPortFound(packetDropped)
attr title "packets dropped (wrong port), count"
vector 27 WirelessC.host05.udp droppedPkBadChecksum:vector(count) ETV
attr interpolationmode none
attr recordingmode vector(count)
attr source packetDropReasonIsIncorrectlyReceived(packetDropped)
attr title "packets dropped (checksum error), count"
vector 28 WirelessC.host06.wlan[0].mac.queue queueLength:vector ETV
attr autoWarmupFilter false
attr interpolationmode sample-hold
attr recordingmode vector
attr source "warmup(count(packetPushed) - count(packetPulled) - count(packetRemoved) - count(packetDropped))"
attr title "queue length"
attr type int
vector 29 WirelessC.host06.udp passedUpPk:vector(count) ETV
attr interpolationmode none
attr recordingmode vector(count)
attr source packetSentToUpper
attr title "packets passed up, count"
vector 30 WirelessC.host06.udp droppedPkWrongPort:vector(count) ETV
attr interpolationmode none
attr recordingmode vector(count)
attr source packetDropReasonIsNoPortFound(packetDropped)
attr title "packets dropped (wrong port), count"
vector 31 WirelessC.host06.udp droppedPkBadChecksum:vector(count) ETV
attr interpolationmode none
attr recordingmode vector(count)
attr source packetDropReasonIsIncorrectlyReceived(packetDropped)
attr title "packets dropped (checksum error), count"
vector 32 WirelessC.host07.wlan[0].mac.queue queueLength:vector ETV
attr autoWarmupFilter false
attr interpolationmode sample-hold
attr recordingmode vector
attr source "warmup(count(packetPushed) - count(packetPulled) - count(packetRemoved) - count(packetDropped))"
attr title "queue length"
attr type int
vector 33 WirelessC.host07.udp passedUpPk:vector(count) ETV
attr interpolationmode none
attr recordingmode vector(count)
attr source packetSentToUpper
attr title "packets passed up, count"
vector 34 WirelessC.host07.udp droppedPkWrongPort:vector(count) ETV
attr interpolationmode none
attr recordingmode vector(count)
attr source packetDropReasonIsNoPortFound(packetDropped)
attr title "packets dropped (wrong port), count"
vector 35 WirelessC.host07.udp droppedPkBadChecksum:vector(count) ETV
attr interpolationmode none
attr recordingmode vector(count)
attr source packetDropReasonIsIncorrectlyReceived(packetDropped)
attr title "packets dropped (checksum error), count"
vector 36 WirelessC.host08.wlan[0].mac.queue queueLength:vector ETV
attr autoWarmupFilter false
attr interpolationmode sample-hold
attr recordingmode vector
attr source "warmup(count(packetPushed) - count(packetPulled) - count(packetRemoved) - count(packetDropped))"
attr title "queue length"
attr type int
vector 37 WirelessC.host08.udp passedUpPk:vector(count) ETV
attr interpolationmode none
attr recordingmode vector(count)
attr source packetSentToUpper
attr title "packets passed up, count"
vector 38 WirelessC.host08.udp droppedPkWrongPort:vector(count) ETV
attr interpolationmode none
attr recordingmode vector(count)
attr source packetDropReasonIsNoPortFound(packetDropped)
attr title "packets dropped (wrong port), count"
vector 39 WirelessC.host08.udp droppedPkBadChecksum:vector(count) ETV
attr interpolationmode none
attr recordingmode vector(count)
attr source packetDropReasonIsIncorrectlyReceived(packetDropped)
attr title "packets dropped (checksum error), count"
vector 40 WirelessC.host09.wlan[0].mac.queue queueLength:vector ETV
attr autoWarmupFilter false
attr interpolationmode sample-hold
attr recordingmode vector
attr source "warmup(count(packetPushed) - count(packetPulled) - count(packetRemoved) - count(packetDropped))"
attr title "queue length"
attr type int
vector 41 WirelessC.host09.udp passedUpPk:vector(count) ETV
attr interpolationmode none
attr recordingmode vector(count)
attr source packetSentToUpper
attr title "packets passed up, count"
vector 42 WirelessC.host09.udp droppedPkWrongPort:vector(count) ETV
attr interpolationmode none
attr recordingmode vector(count)
attr source packetDropReasonIsNoPortFound(packetDropped)
attr title "packets dropped (wrong port), count"
vector 43 WirelessC.host09.udp droppedPkBadChecksum:vector(count) ETV
attr interpolationmode none
attr recordingmode vector(count)
attr source packetDropReasonIsIncorrectlyReceived(packetDropped)
attr title "packets dropped (checksum error), count"
vector 44 WirelessC.host10.wlan[0].mac.queue queueLength:vector ETV
attr autoWarmupFilter false
attr interpolationmode sample-hold
attr recordingmode vector
attr source "warmup(count(packetPushed) - count(packetPulled) - count(packetRemoved) - count(packetDropped))"
attr title "queue length"
attr type int
vector 45 WirelessC.host10.udp passedUpPk:vector(count) ETV
attr interpolationmode none
attr recordingmode vector(count)
attr source packetSentToUpper
attr title "packets passed up, count"
vector 46 WirelessC.host10.udp droppedPkWrongPort:vector(count) ETV
attr interpolationmode none
attr recordingmode vector(count)
attr source packetDropReasonIsNoPortFound(packetDropped)
attr title "packets dropped (wrong port), count"
vector 47 WirelessC.host10.udp droppedPkBadChecksum:vector(count) ETV
attr interpolationmode none
attr recordingmode vector(count)
attr source packetDropReasonIsIncorrectlyReceived(packetDropped)
attr title "packets dropped (checksum error), count"
vector 48 WirelessC.host11.wlan[0].mac.queue queueLength:vector ETV
attr autoWarmupFilter false
attr interpolationmode sample-hold
attr recordingmode vector
attr source "warmup(count(packetPushed) - count(packetPulled) - count(packetRemoved) - count(packetDropped))"
attr title "queue length"
attr type int
vector 49 WirelessC.host11.udp passedUpPk:vector(count) ETV
attr interpolationmode none
attr recordingmode vector(count)
attr source packetSentToUpper
attr title "packets passed up, count"
vector 50 WirelessC.host11.udp droppedPkWrongPort:vector(count) ETV
attr interpolationmode none
attr recordingmode vector(count)
attr source packetDropReasonIsNoPortFound(packetDropped)
attr title "packets dropped (wrong port), count"
vector 51 WirelessC.host11.udp droppedPkBadChecksum:vector(count) ETV
attr interpolationmode none
attr recordingmode vector(count)
attr source packetDropReasonIsIncorrectlyReceived(packetDropped)
attr title "packets dropped (checksum error), count"
vector 52 WirelessC.host12.wlan[0].mac.queue queueLength:vector ETV
attr autoWarmupFilter false
attr interpolationmode sample-hold
attr recordingmode vector
attr source "warmup(count(packetPushed) - count(packetPulled) - count(packetRemoved) - count(packetDropped))"
attr title "queue length"
attr type int
vector 53 WirelessC.host12.udp passedUpPk:vector(count) ETV
attr interpolationmode none
attr recordingmode vector(count)
attr source packetSentToUpper
attr title "packets passed up, count"
vector 54 WirelessC.host12.udp droppedPkWrongPort:vector(count) ETV
attr interpolationmode none
attr recordingmode vector(count)
attr source packetDropReasonIsNoPortFound(packetDropped)
attr title "packets dropped (wrong port), count"
vector 55 WirelessC.host12.udp droppedPkBadChecksum:vector(count) ETV
attr interpolationmode none
attr recordingmode vector(count)
attr source packetDropReasonIsIncorrectlyReceived(packetDropped)
attr title "packets dropped (checksum error), count"
vector 56 WirelessC.host13.wlan[0].mac.queue queueLength:vector ETV
attr autoWarmupFilter false
attr interpolationmode sample-hold
attr recordingmode vector
attr source "warmup(count(packetPushed) - count(packetPulled) - count(packetRemoved) - count(packetDropped))"
attr title "queue length"
attr type int
vector 57 WirelessC.host13.udp passedUpPk:vector(count) ETV
attr interpolationmode none
attr recordingmode vector(count)
attr source packetSentToUpper
attr title "packets passed up, count"
vector 58 WirelessC.host13.udp droppedPkWrongPort:vector(count) ETV
attr interpolationmode none
attr recordingmode vector(count)
attr source packetDropReasonIsNoPortFound(packetDropped)
attr title "packets dropped (wrong port), count"
vector 59 WirelessC.host13.udp droppedPkBadChecksum:vector(count) ETV
attr interpolationmode none
attr recordingmode vector(count)
attr source packetDropReasonIsIncorrectlyReceived(packetDropped)
attr title "packets dropped (checksum error), count"
vector 60 WirelessC.host14.wlan[0].mac.queue queueLength:vector ETV
attr autoWarmupFilter false
attr interpolationmode sample-hold
attr recordingmode vector
attr source "warmup(count(packetPushed) - count(packetPulled) - count(packetRemoved) - count(packetDropped))"
attr title "queue length"
attr type int
vector 61 WirelessC.host14.udp passedUpPk:vector(count) ETV
attr interpolationmode none
attr recordingmode vector(count)
attr source packetSentToUpper
attr title "packets passed up, count"
vector 62 WirelessC.host14.udp droppedPkWrongPort:vector(count) ETV
attr interpolationmode none
attr recordingmode vector(count)
attr source packetDropReasonIsNoPortFound(packetDropped)
attr title "packets dropped (wrong port), count"
vector 63 WirelessC.host14.udp droppedPkBadChecksum:vector(count) ETV
attr interpolationmode none
attr recordingmode vector(count)
attr source packetDropReasonIsIncorrectlyReceived(packetDropped)
attr title "packets dropped (checksum error), count"
vector 64 WirelessC.host15.wlan[0].mac.queue queueLength:vector ETV
attr autoWarmupFilter false
attr interpolationmode sample-hold
attr recordingmode vector
attr source "warmup(count(packetPushed) - count(packetPulled) - count(packetRemoved) - count(packetDropped))"
attr title "queue length"
attr type int
vector 65 WirelessC.host15.udp passedUpPk:vector(count) ETV
attr interpolationmode none
attr recordingmode vector(count)
attr source packetSentToUpper
attr title "packets passed up, count"
vector 66 WirelessC.host15.udp droppedPkWrongPort:vector(count) ETV
attr interpolationmode none
attr recordingmode vector(count)
attr source packetDropReasonIsNoPortFound(packetDropped)
attr title "packets dropped (wrong port), count"
vector 67 WirelessC.host15.udp droppedPkBadChecksum:vector(count) ETV
attr interpolationmode none
attr recordingmode vector(count)
attr source packetDropReasonIsIncorrectlyReceived(packetDropped)
attr title "packets dropped (checksum error), count"
vector 68 WirelessC.host16.wlan[0].mac.queue queueLength:vector ETV
attr autoWarmupFilter false
attr interpolationmode sample-hold
attr recordingmode vector
attr source "warmup(count(packetPushed) - count(packetPulled) - count(packetRemoved) - count(packetDropped))"
attr title "queue length"
attr type int
vector 69 WirelessC.host16.udp passedUpPk:vector(count) ETV
attr interpolationmode none
attr recordingmode vector(count)
attr source packetSentToUpper
attr title "packets passed up, count"
vector 70 WirelessC.host16.udp droppedPkWrongPort:vector(count) ETV
attr interpolationmode none
attr recordingmode vector(count)
attr source packetDropReasonIsNoPortFound(packetDropped)
attr title "packets dropped (wrong port), count"
vector 71 WirelessC.host16.udp droppedPkBadChecksum:vector(count) ETV
attr interpolationmode none
attr recordingmode vector(count)
attr source packetDropReasonIsIncorrectlyReceived(packetDropped)
attr title "packets dropped (checksum error), count"
vector 72 WirelessC.host17.wlan[0].mac.queue queueLength:vector ETV
attr autoWarmupFilter false
attr interpolationmode sample-hold
attr recordingmode vector
attr source "warmup(count(packetPushed) - count(packetPulled) - count(packetRemoved) - count(packetDropped))"
attr title "queue length"
attr type int
vector 73 WirelessC.host17.udp passedUpPk:vector(count) ETV
attr interpolationmode none
attr recordingmode vector(count)
attr source packetSentToUpper
attr title "packets passed up, count"
vector 74 WirelessC.host17.udp droppedPkWrongPort:vector(count) ETV
attr interpolationmode none
attr recordingmode vector(count)
attr source packetDropReasonIsNoPortFound(packetDropped)
attr title "packets dropped (wrong port), count"
vector 75 WirelessC.host17.udp droppedPkBadChecksum:vector(count) ETV
attr interpolationmode none
attr recordingmode vector(count)
attr source packetDropReasonIsIncorrectlyReceived(packetDropped)
attr title "packets dropped (checksum error), count"
vector 76 WirelessC.host18.wlan[0].mac.queue queueLength:vector ETV
attr autoWarmupFilter false
attr interpolationmode sample-hold
attr recordingmode vector
attr source "warmup(count(packetPushed) - count(packetPulled) - count(packetRemoved) - count(packetDropped))"
attr title "queue length"
attr type int
vector 77 WirelessC.host18.udp passedUpPk:vector(count) ETV
attr interpolationmode none
attr recordingmode vector(count)
attr source packetSentToUpper
attr title "packets passed up, count"
vector 78 WirelessC.host18.udp droppedPkWrongPort:vector(count) ETV
attr interpolationmode none
attr recordingmode vector(count)
attr source packetDropReasonIsNoPortFound(packetDropped)
attr title "packets dropped (wrong port), count"
vector 79 WirelessC.host18.udp droppedPkBadChecksum:vector(count) ETV
attr interpolationmode none
attr recordingmode vector(count)
attr source packetDropReasonIsIncorrectlyReceived(packetDropped)
attr title "packets dropped (checksum error), count"
vector 80 WirelessC.host19.wlan[0].mac.queue queueLength:vector ETV
attr autoWarmupFilter false
attr interpolationmode sample-hold
attr recordingmode vector
attr source "warmup(count(packetPushed) - count(packetPulled) - count(packetRemoved) - count(packetDropped))"
attr title "queue length"
attr type int
vector 81 WirelessC.host19.udp passedUpPk:vector(count) ETV
attr interpolationmode none
attr recordingmode vector(count)
attr source packetSentToUpper
attr title "packets passed up, count"
vector 82 WirelessC.host19.udp droppedPkWrongPort:vector(count) ETV
attr interpolationmode none
attr recordingmode vector(count)
attr source packetDropReasonIsNoPortFound(packetDropped)
attr title "packets dropped (wrong port), count"
vector 83 WirelessC.host19.udp droppedPkBadChecksum:vector(count) ETV
attr interpolationmode none
attr recordingmode vector(count)
attr source packetDropReasonIsIncorrectlyReceived(packetDropped)
attr title "packets dropped (checksum error), count"
vector 84 WirelessC.host20.wlan[0].mac.queue queueLength:vector ETV
attr autoWarmupFilter false
attr interpolationmode sample-hold
attr recordingmode vector
attr source "warmup(count(packetPushed) - count(packetPulled) - count(packetRemoved) - count(packetDropped))"
attr title "queue length"
attr type int
vector 85 WirelessC.host20.udp passedUpPk:vector(count) ETV
attr interpolationmode none
attr recordingmode vector(count)
attr source packetSentToUpper
attr title "packets passed up, count"
vector 86 WirelessC.host20.udp droppedPkWrongPort:vector(count) ETV
attr interpolationmode none
attr recordingmode vector(count)
attr source packetDropReasonIsNoPortFound(packetDropped)
attr title "packets dropped (wrong port), count"
vector 87 WirelessC.host20.udp droppedPkBadChecksum:vector(count) ETV
attr interpolationmode none
attr recordingmode vector(count)
attr source packetDropReasonIsIncorrectlyReceived(packetDropped)
attr title "packets dropped (checksum error), count"
vector 88 WirelessC.host21.wlan[0].mac.queue queueLength:vector ETV
attr autoWarmupFilter false
attr interpolationmode sample-hold
attr recordingmode vector
attr source "warmup(count(packetPushed) - count(packetPulled) - count(packetRemoved) - count(packetDropped))"
attr title "queue length"
attr type int
vector 89 WirelessC.host21.udp passedUpPk:vector(count) ETV
attr interpolationmode none
attr recordingmode vector(count)
attr source packetSentToUpper
attr title "packets passed up, count"
vector 90 WirelessC.host21.udp droppedPkWrongPort:vector(count) ETV
attr interpolationmode none
attr recordingmode vector(count)
attr source packetDropReasonIsNoPortFound(packetDropped)
attr title "packets dropped (wrong port), count"
vector 91 WirelessC.host21.udp droppedPkBadChecksum:vector(count) ETV
attr interpolationmode none
attr recordingmode vector(count)
attr source packetDropReasonIsIncorrectlyReceived(packetDropped)
attr title "packets dropped (checksum error), count"
vector 92 WirelessC.host22.wlan[0].mac.queue queueLength:vector ETV
attr autoWarmupFilter false
attr interpolationmode sample-hold
attr recordingmode vector
attr source "warmup(count(packetPushed) - count(packetPulled) - count(packetRemoved) - count(packetDropped))"
attr title "queue length"
attr type int
vector 93 WirelessC.host22.udp passedUpPk:vector(count) ETV
attr interpolationmode none
attr recordingmode vector(count)
attr source packetSentToUpper
attr title "packets passed up, count"
vector 94 WirelessC.host22.udp droppedPkWrongPort:vector(count) ETV
attr interpolationmode none
attr recordingmode vector(count)
attr source packetDropReasonIsNoPortFound(packetDropped)
attr title "packets dropped (wrong port), count"
vector 95 WirelessC.host22.udp droppedPkBadChecksum:vector(count) ETV
attr interpolationmode none
attr recordingmode vector(count)
attr source packetDropReasonIsIncorrectlyReceived(packetDropped)
attr title "packets dropped (checksum error), count"
vector 96 WirelessC.host23.wlan[0].mac.queue queueLength:vector ETV
attr autoWarmupFilter false
attr interpolationmode sample-hold
attr recordingmode vector
attr source "warmup(count(packetPushed) - count(packetPulled) - count(packetRemoved) - count(packetDropped))"
attr title "queue length"
attr type int
vector 97 WirelessC.host23.udp passedUpPk:vector(count) ETV
attr interpolationmode none
attr recordingmode vector(count)
attr source packetSentToUpper
attr title "packets passed up, count"
vector 98 WirelessC.host23.udp droppedPkWrongPort:vector(count) ETV
attr interpolationmode none
attr recordingmode vector(count)
attr source packetDropReasonIsNoPortFound(packetDropped)
attr title "packets dropped (wrong port), count"
vector 99 WirelessC.host23.udp droppedPkBadChecksum:vector(count) ETV
attr interpolationmode none
attr recordingmode vector(count)
attr source packetDropReasonIsIncorrectlyReceived(packetDropped)
attr title "packets dropped (checksum error), count"
vector 100 WirelessC.host24.wlan[0].mac.queue queueLength:vector ETV
attr autoWarmupFilter false
attr interpolationmode sample-hold
attr recordingmode vector
attr source "warmup(count(packetPushed) - count(packetPulled) - count(packetRemoved) - count(packetDropped))"
attr title "queue length"
attr type int
vector 101 WirelessC.host24.udp passedUpPk:vector(count) ETV
attr interpolationmode none
attr recordingmode vector(count)
attr source packetSentToUpper
attr title "packets passed up, count"
vector 102 WirelessC.host24.udp droppedPkWrongPort:vector(count) ETV
attr interpolationmode none
attr recordingmode vector(count)
attr source packetDropReasonIsNoPortFound(packetDropped)
attr title "packets dropped (wrong port), count"
vector 103 WirelessC.host24.udp droppedPkBadChecksum:vector(count) ETV
attr interpolationmode none
attr recordingmode vector(count)
attr source packetDropReasonIsIncorrectlyReceived(packetDropped)
attr title "packets dropped (checksum error), count"
vector 104 WirelessC.host25.wlan[0].mac.queue queueLength:vector ETV
attr autoWarmupFilter false
attr interpolationmode sample-hold
attr recordingmode vector
attr source "warmup(count(packetPushed) - count(packetPulled) - count(packetRemoved) - count(packetDropped))"
attr title "queue length"
attr type int
vector 105 WirelessC.host25.udp passedUpPk:vector(count) ETV
attr interpolationmode none
attr recordingmode vector(count)
attr source packetSentToUpper
attr title "packets passed up, count"
vector 106 WirelessC.host25.udp droppedPkWrongPort:vector(count) ETV
attr interpolationmode none
attr recordingmode vector(count)
attr source packetDropReasonIsNoPortFound(packetDropped)
attr title "packets dropped (wrong port), count"
vector 107 WirelessC.host25.udp droppedPkBadChecksum:vector(count) ETV
attr interpolationmode none
attr recordingmode vector(count)
attr source packetDropReasonIsIncorrectlyReceived(packetDropped)
attr title "packets dropped (checksum error), count"
vector 108 WirelessC.host26.wlan[0].mac.queue queueLength:vector ETV
attr autoWarmupFilter false
attr interpolationmode sample-hold
attr recordingmode vector
attr source "warmup(count(packetPushed) - count(packetPulled) - count(packetRemoved) - count(packetDropped))"
attr title "queue length"
attr type int
vector 109 WirelessC.host26.udp passedUpPk:vector(count) ETV
attr interpolationmode none
attr recordingmode vector(count)
attr source packetSentToUpper
attr title "packets passed up, count"
vector 110 WirelessC.host26.udp droppedPkWrongPort:vector(count) ETV
attr interpolationmode none
attr recordingmode vector(count)
attr source packetDropReasonIsNoPortFound(packetDropped)
attr title "packets dropped (wrong port), count"
vector 111 WirelessC.host26.udp droppedPkBadChecksum:vector(count) ETV
attr interpolationmode none
attr recordingmode vector(count)
attr source packetDropReasonIsIncorrectlyReceived(packetDropped)
attr title "packets dropped (checksum error), count"
vector 112 WirelessC.host27.wlan[0].mac.queue queueLength:vector ETV
attr autoWarmupFilter false
attr interpolationmode sample-hold
attr recordingmode vector
attr source "warmup(count(packetPushed) - count(packetPulled) - count(packetRemoved) - count(packetDropped))"
attr title "queue length"
attr type int
vector 113 WirelessC.host27.udp passedUpPk:vector(count) ETV
attr interpolationmode none
attr recordingmode vector(count)
attr source packetSentToUpper
attr title "packets passed up, count"
vector 114 WirelessC.host27.udp droppedPkWrongPort:vector(count) ETV
attr interpolationmode none
attr recordingmode vector(count)
attr source packetDropReasonIsNoPortFound(packetDropped)
attr title "packets dropped (wrong port), count"
vector 115 WirelessC.host27.udp droppedPkBadChecksum:vector(count) ETV
attr interpolationmode none
attr recordingmode vector(count)
attr source packetDropReasonIsIncorrectlyReceived(packetDropped)
attr title "packets dropped (checksum error), count"
vector 116 WirelessC.host28.wlan[0].mac.queue queueLength:vector ETV
attr autoWarmupFilter false
attr interpolationmode sample-hold
attr recordingmode vector
attr source "warmup(count(packetPushed) - count(packetPulled) - count(packetRemoved) - count(packetDropped))"
attr title "queue length"
attr type int
vector 117 WirelessC.host28.udp passedUpPk:vector(count) ETV
attr interpolationmode none
attr recordingmode vector(count)
attr source packetSentToUpper
attr title "packets passed up, count"
vector 118 WirelessC.host28.udp droppedPkWrongPort:vector(count) ETV
attr interpolationmode none
attr recordingmode vector(count)
attr source packetDropReasonIsNoPortFound(packetDropped)
attr title "packets dropped (wrong port), count"
vector 119 WirelessC.host28.udp droppedPkBadChecksum:vector(count) ETV
attr interpolationmode none
attr recordingmode vector(count)
attr source packetDropReasonIsIncorrectlyReceived(packetDropped)
attr title "packets dropped (checksum error), count"
vector 120 WirelessC.host29.wlan[0].mac.queue queueLength:vector ETV
attr autoWarmupFilter false
attr interpolationmode sample-hold
attr recordingmode vector
attr source "warmup(count(packetPushed) - count(packetPulled) - count(packetRemoved) - count(packetDropped))"
attr title "queue length"
attr type int
vector 121 WirelessC.host29.udp passedUpPk:vector(count) ETV
attr interpolationmode none
attr recordingmode vector(count)
attr source packetSentToUpper
attr title "packets passed up, count"
vector 122 WirelessC.host29.udp droppedPkWrongPort:vector(count) ETV
attr interpolationmode none
attr recordingmode vector(count)
attr source packetDropReasonIsNoPortFound(packetDropped)
attr title "packets dropped (wrong port), count"
vector 123 WirelessC.host29.udp droppedPkBadChecksum:vector(count) ETV
attr interpolationmode none
attr recordingmode vector(count)
attr source packetDropReasonIsIncorrectlyReceived(packetDropped)
attr title "packets dropped (checksum error), count"
vector 124 WirelessC.host30.wlan[0].mac.queue queueLength:vector ETV
attr autoWarmupFilter false
attr interpolationmode sample-hold
attr recordingmode vector
attr source "warmup(count(packetPushed) - count(packetPulled) - count(packetRemoved) - count(packetDropped))"
attr title "queue length"
attr type int
vector 125 WirelessC.host30.udp passedUpPk:vector(count) ETV
attr interpolationmode none
attr recordingmode vector(count)
attr source packetSentToUpper
attr title "packets passed up, count"
vector 126 WirelessC.host30.udp droppedPkWrongPort:vector(count) ETV
attr interpolationmode none
attr recordingmode vector(count)
attr source packetDropReasonIsNoPortFound(packetDropped)
attr title "packets dropped (wrong port), count"
vector 127 WirelessC.host30.udp droppedPkBadChecksum:vector(count) ETV
attr interpolationmode none
attr recordingmode vector(count)
attr source packetDropReasonIsIncorrectlyReceived(packetDropped)
attr title "packets dropped (checksum error), count"
vector 128 WirelessC.host31.wlan[0].mac.queue queueLength:vector ETV
attr autoWarmupFilter false
attr interpolationmode sample-hold
attr recordingmode vector
attr source "warmup(count(packetPushed) - count(packetPulled) - count(packetRemoved) - count(packetDropped))"
attr title "queue length"
attr type int
vector 129 WirelessC.host31.udp passedUpPk:vector(count) ETV
attr interpolationmode none
attr recordingmode vector(count)
attr source packetSentToUpper
attr title "packets passed up, count"
vector 130 WirelessC.host31.udp droppedPkWrongPort:vector(count) ETV
attr interpolationmode none
attr recordingmode vector(count)
attr source packetDropReasonIsNoPortFound(packetDropped)
attr title "packets dropped (wrong port), count"
vector 131 WirelessC.host31.udp droppedPkBadChecksum:vector(count) ETV
attr interpolationmode none
attr recordingmode vector(count)
attr source packetDropReasonIsIncorrectlyReceived(packetDropped)
attr title "packets dropped (checksum error), count"
vector 132 WirelessC.host32.wlan[0].mac.queue queueLength:vector ETV
attr autoWarmupFilter false
attr interpolationmode sample-hold
attr recordingmode vector
attr source "warmup(count(packetPushed) - count(packetPulled) - count(packetRemoved) - count(packetDropped))"
attr title "queue length"
attr type int
vector 133 WirelessC.host32.udp passedUpPk:vector(count) ETV
attr interpolationmode none
attr recordingmode vector(count)
attr source packetSentToUpper
attr title "packets passed up, count"
vector 134 WirelessC.host32.udp droppedPkWrongPort:vector(count) ETV
attr interpolationmode none
attr recordingmode vector(count)
attr source packetDropReasonIsNoPortFound(packetDropped)
attr title "packets dropped (wrong port), count"
vector 135 WirelessC.host32.udp droppedPkBadChecksum:vector(count) ETV
attr interpolationmode none
attr recordingmode vector(count)
attr source packetDropReasonIsIncorrectlyReceived(packetDropped)
attr title "packets dropped (checksum error), count"
vector 136 WirelessC.host33.wlan[0].mac.queue queueLength:vector ETV
attr autoWarmupFilter false
attr interpolationmode sample-hold
attr recordingmode vector
attr source "warmup(count(packetPushed) - count(packetPulled) - count(packetRemoved) - count(packetDropped))"
attr title "queue length"
attr type int
vector 137 WirelessC.host33.udp passedUpPk:vector(count) ETV
attr interpolationmode none
attr recordingmode vector(count)
attr source packetSentToUpper
attr title "packets passed up, count"
vector 138 WirelessC.host33.udp droppedPkWrongPort:vector(count) ETV
attr interpolationmode none
attr recordingmode vector(count)
attr source packetDropReasonIsNoPortFound(packetDropped)
attr title "packets dropped (wrong port), count"
vector 139 WirelessC.host33.udp droppedPkBadChecksum:vector(count) ETV
attr interpolationmode none
attr recordingmode vector(count)
attr source packetDropReasonIsIncorrectlyReceived(packetDropped)
attr title "packets dropped (checksum error), count"
vector 140 WirelessC.host34.wlan[0].mac.queue queueLength:vector ETV
attr autoWarmupFilter false
attr interpolationmode sample-hold
attr recordingmode vector
attr source "warmup(count(packetPushed) - count(packetPulled) - count(packetRemoved) - count(packetDropped))"
attr title "queue length"
attr type int
vector 141 WirelessC.host34.udp passedUpPk:vector(count) ETV
attr interpolationmode none
attr recordingmode vector(count)
attr source packetSentToUpper
attr title "packets passed up, count"
vector 142 WirelessC.host34.udp droppedPkWrongPort:vector(count) ETV
attr interpolationmode none
attr recordingmode vector(count)
attr source packetDropReasonIsNoPortFound(packetDropped)
attr title "packets dropped (wrong port), count"
vector 143 WirelessC.host34.udp droppedPkBadChecksum:vector(count) ETV
attr interpolationmode none
attr recordingmode vector(count)
attr source packetDropReasonIsIncorrectlyReceived(packetDropped)
attr title "packets dropped (checksum error), count"
vector 144 WirelessC.host35.wlan[0].mac.queue queueLength:vector ETV
attr autoWarmupFilter false
attr interpolationmode sample-hold
attr recordingmode vector
attr source "warmup(count(packetPushed) - count(packetPulled) - count(packetRemoved) - count(packetDropped))"
attr title "queue length"
attr type int
vector 145 WirelessC.host35.udp passedUpPk:vector(count) ETV
attr interpolationmode none
attr recordingmode vector(count)
attr source packetSentToUpper
attr title "packets passed up, count"
vector 146 WirelessC.host35.udp droppedPkWrongPort:vector(count) ETV
attr interpolationmode none
attr recordingmode vector(count)
attr source packetDropReasonIsNoPortFound(packetDropped)
attr title "packets dropped (wrong port), count"
vector 147 WirelessC.host35.udp droppedPkBadChecksum:vector(count) ETV
attr interpolationmode none
attr recordingmode vector(count)
attr source packetDropReasonIsIncorrectlyReceived(packetDropped)
attr title "packets dropped (checksum error), count"
vector 148 WirelessC.host36.wlan[0].mac.queue queueLength:vector ETV
attr autoWarmupFilter false
attr interpolationmode sample-hold
attr recordingmode vector
attr source "warmup(count(packetPushed) - count(packetPulled) - count(packetRemoved) - count(packetDropped))"
attr title "queue length"
attr type int
vector 149 WirelessC.host36.udp passedUpPk:vector(count) ETV
attr interpolationmode none
attr recordingmode vector(count)
attr source packetSentToUpper
attr title "packets passed up, count"
vector 150 WirelessC.host36.udp droppedPkWrongPort:vector(count) ETV
attr interpolationmode none
attr recordingmode vector(count)
attr source packetDropReasonIsNoPortFound(packetDropped)
attr title "packets dropped (wrong port), count"
vector 151 WirelessC.host36.udp droppedPkBadChecksum:vector(count) ETV
attr interpolationmode none
attr recordingmode vector(count)
attr source packetDropReasonIsIncorrectlyReceived(packetDropped)
attr title "packets dropped (checksum error), count"
vector 152 WirelessC.host37.wlan[0].mac.queue queueLength:vector ETV
attr autoWarmupFilter false
attr interpolationmode sample-hold
attr recordingmode vector
attr source "warmup(count(packetPushed) - count(packetPulled) - count(packetRemoved) - count(packetDropped))"
attr title "queue length"
attr type int
vector 153 WirelessC.host37.udp passedUpPk:vector(count) ETV
attr interpolationmode none
attr recordingmode vector(count)
attr source packetSentToUpper
attr title "packets passed up, count"
vector 154 WirelessC.host37.udp droppedPkWrongPort:vector(count) ETV
attr interpolationmode none
attr recordingmode vector(count)
attr source packetDropReasonIsNoPortFound(packetDropped)
attr title "packets dropped (wrong port), count"
vector 155 WirelessC.host37.udp droppedPkBadChecksum:vector(count) ETV
attr interpolationmode none
attr recordingmode vector(count)
attr source packetDropReasonIsIncorrectlyReceived(packetDropped)
attr title "packets dropped (checksum error), count"
vector 156 WirelessC.host38.wlan[0].mac.queue queueLength:vector ETV
attr autoWarmupFilter false
attr interpolationmode sample-hold
attr recordingmode vector
attr source "warmup(count(packetPushed) - count(packetPulled) - count(packetRemoved) - count(packetDropped))"
attr title "queue length"
attr type int
vector 157 WirelessC.host38.udp passedUpPk:vector(count) ETV
attr interpolationmode none
attr recordingmode vector(count)
attr source packetSentToUpper
attr title "packets passed up, count"
vector 158 WirelessC.host38.udp droppedPkWrongPort:vector(count) ETV
attr interpolationmode none
attr recordingmode vector(count)
attr source packetDropReasonIsNoPortFound(packetDropped)
attr title "packets dropped (wrong port), count"
vector 159 WirelessC.host38.udp droppedPkBadChecksum:vector(count) ETV
attr interpolationmode none
attr recordingmode vector(count)
attr source packetDropReasonIsIncorrectlyReceived(packetDropped)
attr title "packets dropped (checksum error), count"
vector 160 WirelessC.host39.wlan[0].mac.queue queueLength:vector ETV
attr autoWarmupFilter false
attr interpolationmode sample-hold
attr recordingmode vector
attr source "warmup(count(packetPushed) - count(packetPulled) - count(packetRemoved) - count(packetDropped))"
attr title "queue length"
attr type int
vector 161 WirelessC.host39.udp passedUpPk:vector(count) ETV
attr interpolationmode none
attr recordingmode vector(count)
attr source packetSentToUpper
attr title "packets passed up, count"
vector 162 WirelessC.host39.udp droppedPkWrongPort:vector(count) ETV
attr interpolationmode none
attr recordingmode vector(count)
attr source packetDropReasonIsNoPortFound(packetDropped)
attr title "packets dropped (wrong port), count"
vector 163 WirelessC.host39.udp droppedPkBadChecksum:vector(count) ETV
attr interpolationmode none
attr recordingmode vector(count)
attr source packetDropReasonIsIncorrectlyReceived(packetDropped)
attr title "packets dropped (checksum error), count"
vector 164 WirelessC.host40.wlan[0].mac.queue queueLength:vector ETV
attr autoWarmupFilter false
attr interpolationmode sample-hold
attr recordingmode vector
attr source "warmup(count(packetPushed) - count(packetPulled) - count(packetRemoved) - count(packetDropped))"
attr title "queue length"
attr type int
vector 165 WirelessC.host40.udp passedUpPk:vector(count) ETV
attr interpolationmode none
attr recordingmode vector(count)
attr source packetSentToUpper
attr title "packets passed up, count"
vector 166 WirelessC.host40.udp droppedPkWrongPort:vector(count) ETV
attr interpolationmode none
attr recordingmode vector(count)
attr source packetDropReasonIsNoPortFound(packetDropped)
attr title "packets dropped (wrong port), count"
vector 167 WirelessC.host40.udp droppedPkBadChecksum:vector(count) ETV
attr interpolationmode none
attr recordingmode vector(count)
attr source packetDropReasonIsIncorrectlyReceived(packetDropped)
attr title "packets dropped (checksum error), count"
vector 168 WirelessC.host41.wlan[0].mac.queue queueLength:vector ETV
attr autoWarmupFilter false
attr interpolationmode sample-hold
attr recordingmode vector
attr source "warmup(count(packetPushed) - count(packetPulled) - count(packetRemoved) - count(packetDropped))"
attr title "queue length"
attr type int
vector 169 WirelessC.host41.udp passedUpPk:vector(count) ETV
attr interpolationmode none
attr recordingmode vector(count)
attr source packetSentToUpper
attr title "packets passed up, count"
vector 170 WirelessC.host41.udp droppedPkWrongPort:vector(count) ETV
attr interpolationmode none
attr recordingmode vector(count)
attr source packetDropReasonIsNoPortFound(packetDropped)
attr title "packets dropped (wrong port), count"
vector 171 WirelessC.host41.udp droppedPkBadChecksum:vector(count) ETV
attr interpolationmode none
attr recordingmode vector(count)
attr source packetDropReasonIsIncorrectlyReceived(packetDropped)
attr title "packets dropped (checksum error), count"
vector 172 WirelessC.host42.wlan[0].mac.queue queueLength:vector ETV
attr autoWarmupFilter false
attr interpolationmode sample-hold
attr recordingmode vector
attr source "warmup(count(packetPushed) - count(packetPulled) - count(packetRemoved) - count(packetDropped))"
attr title "queue length"
attr type int
vector 173 WirelessC.host42.udp passedUpPk:vector(count) ETV
attr interpolationmode none
attr recordingmode vector(count)
attr source packetSentToUpper
attr title "packets passed up, count"
vector 174 WirelessC.host42.udp droppedPkWrongPort:vector(count) ETV
attr interpolationmode none
attr recordingmode vector(count)
attr source packetDropReasonIsNoPortFound(packetDropped)
attr title "packets dropped (wrong port), count"
vector 175 WirelessC.host42.udp droppedPkBadChecksum:vector(count) ETV
attr interpolationmode none
attr recordingmode vector(count)
attr source packetDropReasonIsIncorrectlyReceived(packetDropped)
attr title "packets dropped (checksum error), count"
vector 176 WirelessC.host43.wlan[0].mac.queue queueLength:vector ETV
attr autoWarmupFilter false
attr interpolationmode sample-hold
attr recordingmode vector
attr source "warmup(count(packetPushed) - count(packetPulled) - count(packetRemoved) - count(packetDropped))"
attr title "queue length"
attr type int
vector 177 WirelessC.host43.udp passedUpPk:vector(count) ETV
attr interpolationmode none
attr recordingmode vector(count)
attr source packetSentToUpper
attr title "packets passed up, count"
vector 178 WirelessC.host43.udp droppedPkWrongPort:vector(count) ETV
attr interpolationmode none
attr recordingmode vector(count)
attr source packetDropReasonIsNoPortFound(packetDropped)
attr title "packets dropped (wrong port), count"
vector 179 WirelessC.host43.udp droppedPkBadChecksum:vector(count) ETV
attr interpolationmode none
attr recordingmode vector(count)
attr source packetDropReasonIsIncorrectlyReceived(packetDropped)
attr title "packets dropped (checksum error), count"
vector 180 WirelessC.host44.wlan[0].mac.queue queueLength:vector ETV
attr autoWarmupFilter false
attr interpolationmode sample-hold
attr recordingmode vector
attr source "warmup(count(packetPushed) - count(packetPulled) - count(packetRemoved) - count(packetDropped))"
attr title "queue length"
attr type int
vector 181 WirelessC.host44.udp passedUpPk:vector(count) ETV
attr interpolationmode none
attr recordingmode vector(count)
attr source packetSentToUpper
attr title "packets passed up, count"
vector 182 WirelessC.host44.udp droppedPkWrongPort:vector(count) ETV
attr interpolationmode none
attr recordingmode vector(count)
attr source packetDropReasonIsNoPortFound(packetDropped)
attr title "packets dropped (wrong port), count"
vector 183 WirelessC.host44.udp droppedPkBadChecksum:vector(count) ETV
attr interpolationmode none
attr recordingmode vector(count)
attr source packetDropReasonIsIncorrectlyReceived(packetDropped)
attr title "packets dropped (checksum error), count"
vector 184 WirelessC.host45.wlan[0].mac.queue queueLength:vector ETV
attr autoWarmupFilter false
attr interpolationmode sample-hold
attr recordingmode vector
attr source "warmup(count(packetPushed) - count(packetPulled) - count(packetRemoved) - count(packetDropped))"
attr title "queue length"
attr type int
vector 185 WirelessC.host45.udp passedUpPk:vector(count) ETV
attr interpolationmode none
attr recordingmode vector(count)
attr source packetSentToUpper
attr title "packets passed up, count"
vector 186 WirelessC.host45.udp droppedPkWrongPort:vector(count) ETV
attr interpolationmode none
attr recordingmode vector(count)
attr source packetDropReasonIsNoPortFound(packetDropped)
attr title "packets dropped (wrong port), count"
vector 187 WirelessC.host45.udp droppedPkBadChecksum:vector(count) ETV
attr interpolationmode none
attr recordingmode vector(count)
attr source packetDropReasonIsIncorrectlyReceived(packetDropped)
attr title "packets dropped (checksum error), count"
vector 188 WirelessC.host46.wlan[0].mac.queue queueLength:vector ETV
attr autoWarmupFilter false
attr interpolationmode sample-hold
attr recordingmode vector
attr source "warmup(count(packetPushed) - count(packetPulled) - count(packetRemoved) - count(packetDropped))"
attr title "queue length"
attr type int
vector 189 WirelessC.host46.udp passedUpPk:vector(count) ETV
attr interpolationmode none
attr recordingmode vector(count)
attr source packetSentToUpper
attr title "packets passed up, count"
vector 190 WirelessC.host46.udp droppedPkWrongPort:vector(count) ETV
attr interpolationmode none
attr recordingmode vector(count)
attr source packetDropReasonIsNoPortFound(packetDropped)
attr title "packets dropped (wrong port), count"
vector 191 WirelessC.host46.udp droppedPkBadChecksum:vector(count) ETV
attr interpolationmode none
attr recordingmode vector(count)
attr source packetDropReasonIsIncorrectlyReceived(packetDropped)
attr title "packets dropped (checksum error), count"
vector 192 WirelessC.host47.wlan[0].mac.queue queueLength:vector ETV
attr autoWarmupFilter false
attr interpolationmode sample-hold
attr recordingmode vector
attr source "warmup(count(packetPushed) - count(packetPulled) - count(packetRemoved) - count(packetDropped))"
attr title "queue length"
attr type int
vector 193 WirelessC.host47.udp passedUpPk:vector(count) ETV
attr interpolationmode none
attr recordingmode vector(count)
attr source packetSentToUpper
attr title "packets passed up, count"
vector 194 WirelessC.host47.udp droppedPkWrongPort:vector(count) ETV
attr interpolationmode none
attr recordingmode vector(count)
attr source packetDropReasonIsNoPortFound(packetDropped)
attr title "packets dropped (wrong port), count"
vector 195 WirelessC.host47.udp droppedPkBadChecksum:vector(count) ETV
attr interpolationmode none
attr recordingmode vector(count)
attr source packetDropReasonIsIncorrectlyReceived(packetDropped)
attr title "packets dropped (checksum error), count"
vector 196 WirelessC.host48.wlan[0].mac.queue queueLength:vector ETV
attr autoWarmupFilter false
attr interpolationmode sample-hold
attr recordingmode vector
attr source "warmup(count(packetPushed) - count(packetPulled) - count(packetRemoved) - count(packetDropped))"
attr title "queue length"
attr type int
vector 197 WirelessC.host48.udp passedUpPk:vector(count) ETV
attr interpolationmode none
attr recordingmode vector(count)
attr source packetSentToUpper
attr title "packets passed up, count"
vector 198 WirelessC.host48.udp droppedPkWrongPort:vector(count) ETV
attr interpolationmode none
attr recordingmode vector(count)
attr source packetDropReasonIsNoPortFound(packetDropped)
attr title "packets dropped (wrong port), count"
vector 199 WirelessC.host48.udp droppedPkBadChecksum:vector(count) ETV
attr interpolationmode none
attr recordingmode vector(count)
attr source packetDropReasonIsIncorrectlyReceived(packetDropped)
attr title "packets dropped (checksum error), count"
vector 200 WirelessC.host49.wlan[0].mac.queue queueLength:vector ETV
attr autoWarmupFilter false
attr interpolationmode sample-hold
attr recordingmode vector
attr source "warmup(count(packetPushed) - count(packetPulled) - count(packetRemoved) - count(packetDropped))"
attr title "queue length"
attr type int
vector 201 WirelessC.host49.udp passedUpPk:vector(count) ETV
attr interpolationmode none
attr recordingmode vector(count)
attr source packetSentToUpper
attr title "packets passed up, count"
vector 202 WirelessC.host49.udp droppedPkWrongPort:vector(count) ETV
attr interpolationmode none
attr recordingmode vector(count)
attr source packetDropReasonIsNoPortFound(packetDropped)
attr title "packets dropped (wrong port), count"
vector 203 WirelessC.host49.udp droppedPkBadChecksum:vector(count) ETV
attr interpolationmode none
attr recordingmode vector(count)
attr source packetDropReasonIsIncorrectlyReceived(packetDropped)
attr title "packets dropped (checksum error), count"
vector 204 WirelessC.host50.wlan[0].mac.queue queueLength:vector ETV
attr autoWarmupFilter false
attr interpolationmode sample-hold
attr recordingmode vector
attr source "warmup(count(packetPushed) - count(packetPulled) - count(packetRemoved) - count(packetDropped))"
attr title "queue length"
attr type int
vector 205 WirelessC.host50.udp passedUpPk:vector(count) ETV
attr interpolationmode none
attr recordingmode vector(count)
attr source packetSentToUpper
attr title "packets passed up, count"
vector 206 WirelessC.host50.udp droppedPkWrongPort:vector(count) ETV
attr interpolationmode none
attr recordingmode vector(count)
attr source packetDropReasonIsNoPortFound(packetDropped)
attr title "packets dropped (wrong port), count"
vector 207 WirelessC.host50.udp droppedPkBadChecksum:vector(count) ETV
attr interpolationmode none
attr recordingmode vector(count)
attr source packetDropReasonIsIncorrectlyReceived(packetDropped)
attr title "packets dropped (checksum error), count"
vector 208 WirelessC.host51.wlan[0].mac.queue queueLength:vector ETV
attr autoWarmupFilter false
attr interpolationmode sample-hold
attr recordingmode vector
attr source "warmup(count(packetPushed) - count(packetPulled) - count(packetRemoved) - count(packetDropped))"
attr title "queue length"
attr type int
vector 209 WirelessC.host51.udp passedUpPk:vector(count) ETV
attr interpolationmode none
attr recordingmode vector(count)
attr source packetSentToUpper
attr title "packets passed up, count"
vector 210 WirelessC.host51.udp droppedPkWrongPort:vector(count) ETV
attr interpolationmode none
attr recordingmode vector(count)
attr source packetDropReasonIsNoPortFound(packetDropped)
attr title "packets dropped (wrong port), count"
vector 211 WirelessC.host51.udp droppedPkBadChecksum:vector(count) ETV
attr interpolationmode none
attr recordingmode vector(count)
attr source packetDropReasonIsIncorrectlyReceived(packetDropped)
attr title "packets dropped (checksum error), count"
vector 212 WirelessC.host52.wlan[0].mac.queue queueLength:vector ETV
attr autoWarmupFilter false
attr interpolationmode sample-hold
attr recordingmode vector
attr source "warmup(count(packetPushed) - count(packetPulled) - count(packetRemoved) - count(packetDropped))"
attr title "queue length"
attr type int
vector 213 WirelessC.host52.udp passedUpPk:vector(count) ETV
attr interpolationmode none
attr recordingmode vector(count)
attr source packetSentToUpper
attr title "packets passed up, count"
vector 214 WirelessC.host52.udp droppedPkWrongPort:vector(count) ETV
attr interpolationmode none
attr recordingmode vector(count)
attr source packetDropReasonIsNoPortFound(packetDropped)
attr title "packets dropped (wrong port), count"
vector 215 WirelessC.host52.udp droppedPkBadChecksum:vector(count) ETV
attr interpolationmode none
attr recordingmode vector(count)
attr source packetDropReasonIsIncorrectlyReceived(packetDropped)
attr title "packets dropped (checksum error), count"
vector 216 WirelessC.host53.wlan[0].mac.queue queueLength:vector ETV
attr autoWarmupFilter false
attr interpolationmode sample-hold
attr recordingmode vector
attr source "warmup(count(packetPushed) - count(packetPulled) - count(packetRemoved) - count(packetDropped))"
attr title "queue length"
attr type int
vector 217 WirelessC.host53.udp passedUpPk:vector(count) ETV
attr interpolationmode none
attr recordingmode vector(count)
attr source packetSentToUpper
attr title "packets passed up, count"
vector 218 WirelessC.host53.udp droppedPkWrongPort:vector(count) ETV
attr interpolationmode none
attr recordingmode vector(count)
attr source packetDropReasonIsNoPortFound(packetDropped)
attr title "packets dropped (wrong port), count"
vector 219 WirelessC.host53.udp droppedPkBadChecksum:vector(count) ETV
attr interpolationmode none
attr recordingmode vector(count)
attr source packetDropReasonIsIncorrectlyReceived(packetDropped)
attr title "packets dropped (checksum error), count"
vector 220 WirelessC.host54.wlan[0].mac.queue queueLength:vector ETV
attr autoWarmupFilter false
attr interpolationmode sample-hold
attr recordingmode vector
attr source "warmup(count(packetPushed) - count(packetPulled) - count(packetRemoved) - count(packetDropped))"
attr title "queue length"
attr type int
vector 221 WirelessC.host54.udp passedUpPk:vector(count) ETV
attr interpolationmode none
attr recordingmode vector(count)
attr source packetSentToUpper
attr title "packets passed up, count"
vector 222 WirelessC.host54.udp droppedPkWrongPort:vector(count) ETV
attr interpolationmode none
attr recordingmode vector(count)
attr source packetDropReasonIsNoPortFound(packetDropped)
attr title "packets dropped (wrong port), count"
vector 223 WirelessC.host54.udp droppedPkBadChecksum:vector(count) ETV
attr interpolationmode none
attr recordingmode vector(count)
attr source packetDropReasonIsIncorrectlyReceived(packetDropped)
attr title "packets dropped (checksum error), count"
vector 224 WirelessC.host55.wlan[0].mac.queue queueLength:vector ETV
attr autoWarmupFilter false
attr interpolationmode sample-hold
attr recordingmode vector
attr source "warmup(count(packetPushed) - count(packetPulled) - count(packetRemoved) - count(packetDropped))"
attr title "queue length"
attr type int
vector 225 WirelessC.host55.udp passedUpPk:vector(count) ETV
attr interpolationmode none
attr recordingmode vector(count)
attr source packetSentToUpper
attr title "packets passed up, count"
vector 226 WirelessC.host55.udp droppedPkWrongPort:vector(count) ETV
attr interpolationmode none
attr recordingmode vector(count)
attr source packetDropReasonIsNoPortFound(packetDropped)
attr title "packets dropped (wrong port), count"
vector 227 WirelessC.host55.udp droppedPkBadChecksum:vector(count) ETV
attr interpolationmode none
attr recordingmode vector(count)
attr source packetDropReasonIsIncorrectlyReceived(packetDropped)
attr title "packets dropped (checksum error), count"
vector 228 WirelessC.host56.wlan[0].mac.queue queueLength:vector ETV
attr autoWarmupFilter false
attr interpolationmode sample-hold
attr recordingmode vector
attr source "warmup(count(packetPushed) - count(packetPulled) - count(packetRemoved) - count(packetDropped))"
attr title "queue length"
attr type int
vector 229 WirelessC.host56.udp passedUpPk:vector(count) ETV
attr interpolationmode none
attr recordingmode vector(count)
attr source packetSentToUpper
attr title "packets passed up, count"
vector 230 WirelessC.host56.udp droppedPkWrongPort:vector(count) ETV
attr interpolationmode none
attr recordingmode vector(count)
attr source packetDropReasonIsNoPortFound(packetDropped)
attr title "packets dropped (wrong port), count"
vector 231 WirelessC.host56.udp droppedPkBadChecksum:vector(count) ETV
attr interpolationmode none
attr recordingmode vector(count)
attr source packetDropReasonIsIncorrectlyReceived(packetDropped)
attr title "packets dropped (checksum error), count"
vector 232 WirelessC.host57.wlan[0].mac.queue queueLength:vector ETV
attr autoWarmupFilter false
attr interpolationmode sample-hold
attr recordingmode vector
attr source "warmup(count(packetPushed) - count(packetPulled) - count(packetRemoved) - count(packetDropped))"
attr title "queue length"
attr type int
vector 233 WirelessC.host57.udp passedUpPk:vector(count) ETV
attr interpolationmode none
attr recordingmode vector(count)
attr source packetSentToUpper
attr title "packets passed up, count"
vector 234 WirelessC.host57.udp droppedPkWrongPort:vector(count) ETV
attr interpolationmode none
attr recordingmode vector(count)
attr source packetDropReasonIsNoPortFound(packetDropped)
attr title "packets dropped (wrong port), count"
vector 235 WirelessC.host57.udp droppedPkBadChecksum:vector(count) ETV
attr interpolationmode none
attr recordingmode vector(count)
attr source packetDropReasonIsIncorrectlyReceived(packetDropped)
attr title "packets dropped (checksum error), count"
vector 236 WirelessC.host58.wlan[0].mac.queue queueLength:vector ETV
attr autoWarmupFilter false
attr interpolationmode sample-hold
attr recordingmode vector
attr source "warmup(count(packetPushed) - count(packetPulled) - count(packetRemoved) - count(packetDropped))"
attr title "queue length"
attr type int
vector 237 WirelessC.host58.udp passedUpPk:vector(count) ETV
attr interpolationmode none
attr recordingmode vector(count)
attr source packetSentToUpper
attr title "packets passed up, count"
vector 238 WirelessC.host58.udp droppedPkWrongPort:vector(count) ETV
attr interpolationmode none
attr recordingmode vector(count)
attr source packetDropReasonIsNoPortFound(packetDropped)
attr title "packets dropped (wrong port), count"
vector 239 WirelessC.host58.udp droppedPkBadChecksum:vector(count) ETV
attr interpolationmode none
attr recordingmode vector(count)
attr source packetDropReasonIsIncorrectlyReceived(packetDropped)
attr title "packets dropped (checksum error), count"
vector 240 WirelessC.host59.wlan[0].mac.queue queueLength:vector ETV
attr autoWarmupFilter false
attr interpolationmode sample-hold
attr recordingmode vector
attr source "warmup(count(packetPushed) - count(packetPulled) - count(packetRemoved) - count(packetDropped))"
attr title "queue length"
attr type int
vector 241 WirelessC.host59.udp passedUpPk:vector(count) ETV
attr interpolationmode none
attr recordingmode vector(count)
attr source packetSentToUpper
attr title "packets passed up, count"
vector 242 WirelessC.host59.udp droppedPkWrongPort:vector(count) ETV
attr interpolationmode none
attr recordingmode vector(count)
attr source packetDropReasonIsNoPortFound(packetDropped)
attr title "packets dropped (wrong port), count"
vector 243 WirelessC.host59.udp droppedPkBadChecksum:vector(count) ETV
attr interpolationmode none
attr recordingmode vector(count)
attr source packetDropReasonIsIncorrectlyReceived(packetDropped)
attr title "packets dropped (checksum error), count"
vector 244 WirelessC.host60.wlan[0].mac.queue queueLength:vector ETV
attr autoWarmupFilter false
attr interpolationmode sample-hold
attr recordingmode vector
attr source "warmup(count(packetPushed) - count(packetPulled) - count(packetRemoved) - count(packetDropped))"
attr title "queue length"
attr type int
vector 245 WirelessC.host60.udp passedUpPk:vector(count) ETV
attr interpolationmode none
attr recordingmode vector(count)
attr source packetSentToUpper
attr title "packets passed up, count"
vector 246 WirelessC.host60.udp droppedPkWrongPort:vector(count) ETV
attr interpolationmode none
attr recordingmode vector(count)
attr source packetDropReasonIsNoPortFound(packetDropped)
attr title "packets dropped (wrong port), count"
vector 247 WirelessC.host60.udp droppedPkBadChecksum:vector(count) ETV
attr interpolationmode none
attr recordingmode vector(count)
attr source packetDropReasonIsIncorrectlyReceived(packetDropped)
attr title "packets dropped (checksum error), count"
vector 248 WirelessC.host61.wlan[0].mac.queue queueLength:vector ETV
attr autoWarmupFilter false
attr interpolationmode sample-hold
attr recordingmode vector
attr source "warmup(count(packetPushed) - count(packetPulled) - count(packetRemoved) - count(packetDropped))"
attr title "queue length"
attr type int
vector 249 WirelessC.host61.udp passedUpPk:vector(count) ETV
attr interpolationmode none
attr recordingmode vector(count)
attr source packetSentToUpper
attr title "packets passed up, count"
vector 250 WirelessC.host61.udp droppedPkWrongPort:vector(count) ETV
attr interpolationmode none
attr recordingmode vector(count)
attr source packetDropReasonIsNoPortFound(packetDropped)
attr title "packets dropped (wrong port), count"
vector 251 WirelessC.host61.udp droppedPkBadChecksum:vector(count) ETV
attr interpolationmode none
attr recordingmode vector(count)
attr source packetDropReasonIsIncorrectlyReceived(packetDropped)
attr title "packets dropped (checksum error), count"
vector 252 WirelessC.host62.wlan[0].mac.queue queueLength:vector ETV
attr autoWarmupFilter false
attr interpolationmode sample-hold
attr recordingmode vector
attr source "warmup(count(packetPushed) - count(packetPulled) - count(packetRemoved) - count(packetDropped))"
attr title "queue length"
attr type int
vector 253 WirelessC.host62.udp passedUpPk:vector(count) ETV
attr interpolationmode none
attr recordingmode vector(count)
attr source packetSentToUpper
attr title "packets passed up, count"
vector 254 WirelessC.host62.udp droppedPkWrongPort:vector(count) ETV
attr interpolationmode none
attr recordingmode vector(count)
attr source packetDropReasonIsNoPortFound(packetDropped)
attr title "packets dropped (wrong port), count"
vector 255 WirelessC.host62.udp droppedPkBadChecksum:vector(count) ETV
attr interpolationmode none
attr recordingmode vector(count)
attr source packetDropReasonIsIncorrectlyReceived(packetDropped)
attr title "packets dropped (checksum error), count"
vector 256 WirelessC.host63.wlan[0].mac.queue queueLength:vector ETV
attr autoWarmupFilter false
attr interpolationmode sample-hold
attr recordingmode vector
attr source "warmup(count(packetPushed) - count(packetPulled) - count(packetRemoved) - count(packetDropped))"
attr title "queue length"
attr type int
vector 257 WirelessC.host63.udp passedUpPk:vector(count) ETV
attr interpolationmode none
attr recordingmode vector(count)
attr source packetSentToUpper
attr title "packets passed up, count"
vector 258 WirelessC.host63.udp droppedPkWrongPort:vector(count) ETV
attr interpolationmode none
attr recordingmode vector(count)
attr source packetDropReasonIsNoPortFound(packetDropped)
attr title "packets dropped (wrong port), count"
vector 259 WirelessC.host63.udp droppedPkBadChecksum:vector(count) ETV
attr interpolationmode none
attr recordingmode vector(count)
attr source packetDropReasonIsIncorrectlyReceived(packetDropped)
attr title "packets dropped (checksum error), count"
vector 260 WirelessC.host64.wlan[0].mac.queue queueLength:vector ETV
attr autoWarmupFilter false
attr interpolationmode sample-hold
attr recordingmode vector
attr source "warmup(count(packetPushed) - count(packetPulled) - count(packetRemoved) - count(packetDropped))"
attr title "queue length"
attr type int
vector 261 WirelessC.host64.udp passedUpPk:vector(count) ETV
attr interpolationmode none
attr recordingmode vector(count)
attr source packetSentToUpper
attr title "packets passed up, count"
vector 262 WirelessC.host64.udp droppedPkWrongPort:vector(count) ETV
attr interpolationmode none
attr recordingmode vector(count)
attr source packetDropReasonIsNoPortFound(packetDropped)
attr title "packets dropped (wrong port), count"
vector 263 WirelessC.host64.udp droppedPkBadChecksum:vector(count) ETV
attr interpolationmode none
attr recordingmode vector(count)
attr source packetDropReasonIsIncorrectlyReceived(packetDropped)
attr title "packets dropped (checksum error), count"
vector 264 WirelessC.host65.wlan[0].mac.queue queueLength:vector ETV
attr autoWarmupFilter false
attr interpolationmode sample-hold
attr recordingmode vector
attr source "warmup(count(packetPushed) - count(packetPulled) - count(packetRemoved) - count(packetDropped))"
attr title "queue length"
attr type int
vector 265 WirelessC.host65.udp passedUpPk:vector(count) ETV
attr interpolationmode none
attr recordingmode vector(count)
attr source packetSentToUpper
attr title "packets passed up, count"
vector 266 WirelessC.host65.udp droppedPkWrongPort:vector(count) ETV
attr interpolationmode none
attr recordingmode vector(count)
attr source packetDropReasonIsNoPortFound(packetDropped)
attr title "packets dropped (wrong port), count"
vector 267 WirelessC.host65.udp droppedPkBadChecksum:vector(count) ETV
attr interpolationmode none
attr recordingmode vector(count)
attr source packetDropReasonIsIncorrectlyReceived(packetDropped)
attr title "packets dropped (checksum error), count"
vector 268 WirelessC.host66.wlan[0].mac.queue queueLength:vector ETV
attr autoWarmupFilter false
attr interpolationmode sample-hold
attr recordingmode vector
attr source "warmup(count(packetPushed) - count(packetPulled) - count(packetRemoved) - count(packetDropped))"
attr title "queue length"
attr type int
vector 269 WirelessC.host66.udp passedUpPk:vector(count) ETV
attr interpolationmode none
attr recordingmode vector(count)
attr source packetSentToUpper
attr title "packets passed up, count"
vector 270 WirelessC.host66.udp droppedPkWrongPort:vector(count) ETV
attr interpolationmode none
attr recordingmode vector(count)
attr source packetDropReasonIsNoPortFound(packetDropped)
attr title "packets dropped (wrong port), count"
vector 271 WirelessC.host66.udp droppedPkBadChecksum:vector(count) ETV
attr interpolationmode none
attr recordingmode vector(count)
attr source packetDropReasonIsIncorrectlyReceived(packetDropped)
attr title "packets dropped (checksum error), count"
vector 272 WirelessC.host67.wlan[0].mac.queue queueLength:vector ETV
attr autoWarmupFilter false
attr interpolationmode sample-hold
attr recordingmode vector
attr source "warmup(count(packetPushed) - count(packetPulled) - count(packetRemoved) - count(packetDropped))"
attr title "queue length"
attr type int
vector 273 WirelessC.host67.udp passedUpPk:vector(count) ETV
attr interpolationmode none
attr recordingmode vector(count)
attr source packetSentToUpper
attr title "packets passed up, count"
vector 274 WirelessC.host67.udp droppedPkWrongPort:vector(count) ETV
attr interpolationmode none
attr recordingmode vector(count)
attr source packetDropReasonIsNoPortFound(packetDropped)
attr title "packets dropped (wrong port), count"
vector 275 WirelessC.host67.udp droppedPkBadChecksum:vector(count) ETV
attr interpolationmode none
attr recordingmode vector(count)
attr source packetDropReasonIsIncorrectlyReceived(packetDropped)
attr title "packets dropped (checksum error), count"
vector 276 WirelessC.host68.wlan[0].mac.queue queueLength:vector ETV
attr autoWarmupFilter false
attr interpolationmode sample-hold
attr recordingmode vector
attr source "warmup(count(packetPushed) - count(packetPulled) - count(packetRemoved) - count(packetDropped))"
attr title "queue length"
attr type int
vector 277 WirelessC.host68.udp passedUpPk:vector(count) ETV
attr interpolationmode none
attr recordingmode vector(count)
attr source packetSentToUpper
attr title "packets passed up, count"
vector 278 WirelessC.host68.udp droppedPkWrongPort:vector(count) ETV
attr interpolationmode none
attr recordingmode vector(count)
attr source packetDropReasonIsNoPortFound(packetDropped)
attr title "packets dropped (wrong port), count"
vector 279 WirelessC.host68.udp droppedPkBadChecksum:vector(count) ETV
attr interpolationmode none
attr recordingmode vector(count)
attr source packetDropReasonIsIncorrectlyReceived(packetDropped)
attr title "packets dropped (checksum error), count"
vector 280 WirelessC.host69.wlan[0].mac.queue queueLength:vector ETV
attr autoWarmupFilter false
attr interpolationmode sample-hold
attr recordingmode vector
attr source "warmup(count(packetPushed) - count(packetPulled) - count(packetRemoved) - count(packetDropped))"
attr title "queue length"
attr type int
vector 281 WirelessC.host69.udp passedUpPk:vector(count) ETV
attr interpolationmode none
attr recordingmode vector(count)
attr source packetSentToUpper
attr title "packets passed up, count"
vector 282 WirelessC.host69.udp droppedPkWrongPort:vector(count) ETV
attr interpolationmode none
attr recordingmode vector(count)
attr source packetDropReasonIsNoPortFound(packetDropped)
attr title "packets dropped (wrong port), count"
vector 283 WirelessC.host69.udp droppedPkBadChecksum:vector(count) ETV
attr interpolationmode none
attr recordingmode vector(count)
attr source packetDropReasonIsIncorrectlyReceived(packetDropped)
attr title "packets dropped (checksum error), count"
vector 284 WirelessC.host70.wlan[0].mac.queue queueLength:vector ETV
attr autoWarmupFilter false
attr interpolationmode sample-hold
attr recordingmode vector
attr source "warmup(count(packetPushed) - count(packetPulled) - count(packetRemoved) - count(packetDropped))"
attr title "queue length"
attr type int
vector 285 WirelessC.host70.udp passedUpPk:vector(count) ETV
attr interpolationmode none
attr recordingmode vector(count)
attr source packetSentToUpper
attr title "packets passed up, count"
vector 286 WirelessC.host70.udp droppedPkWrongPort:vector(count) ETV
attr interpolationmode none
attr recordingmode vector(count)
attr source packetDropReasonIsNoPortFound(packetDropped)
attr title "packets dropped (wrong port), count"
vector 287 WirelessC.host70.udp droppedPkBadChecksum:vector(count) ETV
attr interpolationmode none
attr recordingmode vector(count)
attr source packetDropReasonIsIncorrectlyReceived(packetDropped)
attr title "packets dropped (checksum error), count"
vector 288 WirelessC.host71.wlan[0].mac.queue queueLength:vector ETV
attr autoWarmupFilter false
attr interpolationmode sample-hold
attr recordingmode vector
attr source "warmup(count(packetPushed) - count(packetPulled) - count(packetRemoved) - count(packetDropped))"
attr title "queue length"
attr type int
vector 289 WirelessC.host71.udp passedUpPk:vector(count) ETV
attr interpolationmode none
attr recordingmode vector(count)
attr source packetSentToUpper
attr title "packets passed up, count"
vector 290 WirelessC.host71.udp droppedPkWrongPort:vector(count) ETV
attr interpolationmode none
attr recordingmode vector(count)
attr source packetDropReasonIsNoPortFound(packetDropped)
attr title "packets dropped (wrong port), count"
vector 291 WirelessC.host71.udp droppedPkBadChecksum:vector(count) ETV
attr interpolationmode none
attr recordingmode vector(count)
attr source packetDropReasonIsIncorrectlyReceived(packetDropped)
attr title "packets dropped (checksum error), count"
vector 292 WirelessC.host72.wlan[0].mac.queue queueLength:vector ETV
attr autoWarmupFilter false
attr interpolationmode sample-hold
attr recordingmode vector
attr source "warmup(count(packetPushed) - count(packetPulled) - count(packetRemoved) - count(packetDropped))"
attr title "queue length"
attr type int
vector 293 WirelessC.host72.udp passedUpPk:vector(count) ETV
attr interpolationmode none
attr recordingmode vector(count)
attr source packetSentToUpper
attr title "packets passed up, count"
vector 294 WirelessC.host72.udp droppedPkWrongPort:vector(count) ETV
attr interpolationmode none
attr recordingmode vector(count)
attr source packetDropReasonIsNoPortFound(packetDropped)
attr title "packets dropped (wrong port), count"
vector 295 WirelessC.host72.udp droppedPkBadChecksum:vector(count) ETV
attr interpolationmode none
attr recordingmode vector(count)
attr source packetDropReasonIsIncorrectlyReceived(packetDropped)
attr title "packets dropped (checksum error), count"
vector 296 WirelessC.host73.wlan[0].mac.queue queueLength:vector ETV
attr autoWarmupFilter false
attr interpolationmode sample-hold
attr recordingmode vector
attr source "warmup(count(packetPushed) - count(packetPulled) - count(packetRemoved) - count(packetDropped))"
attr title "queue length"
attr type int
vector 297 WirelessC.host73.udp passedUpPk:vector(count) ETV
attr interpolationmode none
attr recordingmode vector(count)
attr source packetSentToUpper
attr title "packets passed up, count"
vector 298 WirelessC.host73.udp droppedPkWrongPort:vector(count) ETV
attr interpolationmode none
attr recordingmode vector(count)
attr source packetDropReasonIsNoPortFound(packetDropped)
attr title "packets dropped (wrong port), count"
vector 299 WirelessC.host73.udp droppedPkBadChecksum:vector(count) ETV
attr interpolationmode none
attr recordingmode vector(count)
attr source packetDropReasonIsIncorrectlyReceived(packetDropped)
attr title "packets dropped (checksum error), count"
vector 300 WirelessC.host74.wlan[0].mac.queue queueLength:vector ETV
attr autoWarmupFilter false
attr interpolationmode sample-hold
attr recordingmode vector
attr source "warmup(count(packetPushed) - count(packetPulled) - count(packetRemoved) - count(packetDropped))"
attr title "queue length"
attr type int
vector 301 WirelessC.host74.udp passedUpPk:vector(count) ETV
attr interpolationmode none
attr recordingmode vector(count)
attr source packetSentToUpper
attr title "packets passed up, count"
vector 302 WirelessC.host74.udp droppedPkWrongPort:vector(count) ETV
attr interpolationmode none
attr recordingmode vector(count)
attr source packetDropReasonIsNoPortFound(packetDropped)
attr title "packets dropped (wrong port), count"
vector 303 WirelessC.host74.udp droppedPkBadChecksum:vector(count) ETV
attr interpolationmode none
attr recordingmode vector(count)
attr source packetDropReasonIsIncorrectlyReceived(packetDropped)
attr title "packets dropped (checksum error), count"
vector 304 WirelessC.host75.wlan[0].mac.queue queueLength:vector ETV
attr autoWarmupFilter false
attr interpolationmode sample-hold
attr recordingmode vector
attr source "warmup(count(packetPushed) - count(packetPulled) - count(packetRemoved) - count(packetDropped))"
attr title "queue length"
attr type int
vector 305 WirelessC.host75.udp passedUpPk:vector(count) ETV
attr interpolationmode none
attr recordingmode vector(count)
attr source packetSentToUpper
attr title "packets passed up, count"
vector 306 WirelessC.host75.udp droppedPkWrongPort:vector(count) ETV
attr interpolationmode none
attr recordingmode vector(count)
attr source packetDropReasonIsNoPortFound(packetDropped)
attr title "packets dropped (wrong port), count"
vector 307 WirelessC.host75.udp droppedPkBadChecksum:vector(count) ETV
attr interpolationmode none
attr recordingmode vector(count)
attr source packetDropReasonIsIncorrectlyReceived(packetDropped)
attr title "packets dropped (checksum error), count"
vector 308 WirelessC.host76.wlan[0].mac.queue queueLength:vector ETV
attr autoWarmupFilter false
attr interpolationmode sample-hold
attr recordingmode vector
attr source "warmup(count(packetPushed) - count(packetPulled) - count(packetRemoved) - count(packetDropped))"
attr title "queue length"
attr type int
vector 309 WirelessC.host76.udp passedUpPk:vector(count) ETV
attr interpolationmode none
attr recordingmode vector(count)
attr source packetSentToUpper
attr title "packets passed up, count"
vector 310 WirelessC.host76.udp droppedPkWrongPort:vector(count) ETV
attr interpolationmode none
attr recordingmode vector(count)
attr source packetDropReasonIsNoPortFound(packetDropped)
attr title "packets dropped (wrong port), count"
vector 311 WirelessC.host76.udp droppedPkBadChecksum:vector(count) ETV
attr interpolationmode none
attr recordingmode vector(count)
attr source packetDropReasonIsIncorrectlyReceived(packetDropped)
attr title "packets dropped (checksum error), count"
vector 312 WirelessC.host77.wlan[0].mac.queue queueLength:vector ETV
attr autoWarmupFilter false
attr interpolationmode sample-hold
attr recordingmode vector
attr source "warmup(count(packetPushed) - count(packetPulled) - count(packetRemoved) - count(packetDropped))"
attr title "queue length"
attr type int
vector 313 WirelessC.host77.udp passedUpPk:vector(count) ETV
attr interpolationmode none
attr recordingmode vector(count)
attr source packetSentToUpper
attr title "packets passed up, count"
vector 314 WirelessC.host77.udp droppedPkWrongPort:vector(count) ETV
attr interpolationmode none
attr recordingmode vector(count)
attr source packetDropReasonIsNoPortFound(packetDropped)
attr title "packets dropped (wrong port), count"
[...]
613	1762	0.137348692036	1
613	1762	0.137348692036	0
613	1870	0.180168750377	1
613	1871	0.180168750377	2
613	1972	0.180672750377	1
613	1972	0.180672750377	0
613	2083	0.193552800356	1
613	2084	0.193552800356	2
613	2185	0.194056800356	1
613	2185	0.194056800356	0
613	2289	0.195531095431	1
613	2290	0.195531095431	2
613	2391	0.196035095431	1
613	2391	0.196035095431	0
613	2495	0.197406284943	1
613	2496	0.197406284943	2
613	2597	0.197910284943	1
613	2597	0.197910284943	0
613	2702	0.203632258383	1
613	2703	0.203632258383	2
613	2805	0.204136258383	1
613	2805	0.204136258383	0
613	2912	0.224392568987	1
613	2913	0.224392568987	2
613	3014	0.224896568987	1
613	3014	0.224896568987	0
613	3141	0.35537496109	1
613	3142	0.35537496109	2
613	3243	0.35587896109	1
613	3243	0.35587896109	0
613	3358	0.427785181367	1
613	3359	0.427785181367	2
613	3460	0.428289181367	1
613	3460	0.428289181367	0
613	3587	0.510945140931	1
613	3588	0.510945140931	2
613	3689	0.511449140931	1
613	3689	0.511449140931	0
613	3809	0.557284451101	1
613	3810	0.557284451101	2
613	3911	0.557788451101	1
613	3911	0.557788451101	0
613	4075	0.766691590439	1
613	4076	0.766691590439	2
613	4177	0.767195590439	1
613	4177	0.767195590439	0
613	4291	0.797231126714	1
613	4292	0.797231126714	2
613	4393	0.797735126714	1
613	4393	0.797735126714	0
613	4542	0.9041609168	1
613	4543	0.9041609168	2
613	4644	0.9046649168	1
613	4644	0.9046649168	0
613	4772	1.007958745046	1
613	4773	1.007958745046	2
613	4874	1.008462745046	1
613	4874	1.008462745046	0
613	4976	1.015057924318	1
613	4977	1.015057924318	2
613	5078	1.015561924318	1
613	5078	1.015561924318	0
613	5188	1.036903175292	1
613	5189	1.036903175292	2
613	5290	1.037407175292	1
613	5290	1.037407175292	0
613	5392	1.042131875593	1
613	5393	1.042131875593	2
613	5494	1.042635875593	1
613	5494	1.042635875593	0
613	5596	1.042848629436	1
613	5597	1.042848629436	2
613	5698	1.043352629436	1
613	5698	1.043352629436	0
613	5803	1.06025158638	1
613	5804	1.06025158638	2
613	5905	1.06075558638	1
613	5905	1.06075558638	0
613	6024	1.136844692036	1
613	6025	1.136844692036	2
613	6126	1.137348692036	1
613	6126	1.137348692036	0
613	6241	1.180168750377	1
613	6242	1.180168750377	2
613	6343	1.180672750377	1
613	6343	1.180672750377	0
613	6446	1.193552800356	1
613	6447	1.193552800356	2
613	6548	1.194056800356	1
613	6548	1.194056800356	0
613	6650	1.195531095431	1
613	6651	1.195531095431	2
613	6755	1.196035095431	1
613	6755	1.196035095431	0
613	6857	1.197406284943	1
613	6858	1.197406284943	2
613	6959	1.197910284943	1
613	6959	1.197910284943	0
613	7065	1.203632258383	1
613	7066	1.203632258383	2
613	7168	1.204136258383	1
613	7168	1.204136258383	0
613	7273	1.224392568987	1
613	7274	1.224392568987	2
613	7375	1.224896568987	1
613	7375	1.224896568987	0
613	7494	1.35537496109	1
613	7495	1.35537496109	2
613	7596	1.35587896109	1
613	7596	1.35587896109	0
613	7739	1.427785181367	1
613	7740	1.427785181367	2
613	7841	1.428289181367	1
613	7841	1.428289181367	0
613	7981	1.510945140931	1
613	7982	1.510945140931	2
613	8083	1.511449140931	1
613	8083	1.511449140931	0
613	8204	1.557284451101	1
613	8205	1.557284451101	2
613	8306	1.557788451101	1
613	8306	1.557788451101	0
613	8483	1.766691590439	1
613	8484	1.766691590439	2
613	8585	1.767195590439	1
613	8585	1.767195590439	0
613	8703	1.797231126714	1
613	8704	1.797231126714	2
613	8805	1.797735126714	1
613	8805	1.797735126714	0
613	8934	1.9041609168	1
613	8935	1.9041609168	2
613	9036	1.9046649168	1
613	9036	1.9046649168	0
613	9161	2.007958745046	1
613	9162	2.007958745046	2
613	9263	2.008462745046	1
613	9263	2.008462745046	0
613	9371	2.015057924318	1
613	9372	2.015057924318	2
613	9473	2.015561924318	1
613	9473	2.015561924318	0
613	9586	2.036903175292	1
613	9587	2.036903175292	2
613	9688	2.037407175292	1
613	9688	2.037407175292	0
613	9790	2.042131875593	1
613	9791	2.042131875593	2
613	9895	2.042635875593	1
613	9895	2.042635875593	0
613	9997	2.042848629436	1
613	9998	2.042848629436	2
613	10099	2.043352629436	1
613	10099	2.043352629436	0
613	10219	2.06025158638	1
613	10220	2.06025158638	2
613	10321	2.06075558638	1
613	10321	2.06075558638	0
613	10449	2.136844692036	1
613	10450	2.136844692036	2
613	10551	2.137348692036	1
613	10551	2.137348692036	0
613	10657	2.180168750377	1
613	10658	2.180168750377	2
613	10759	2.180672750377	1
613	10759	2.180672750377	0
613	10868	2.193552800356	1
613	10869	2.193552800356	2
613	10970	2.194056800356	1
613	10970	2.194056800356	0
613	11072	2.195531095431	1
613	11073	2.195531095431	2
613	11174	2.196035095431	1
613	11174	2.196035095431	0
613	11276	2.197406284943	1
613	11277	2.197406284943	2
613	11378	2.197910284943	1
613	11378	2.197910284943	0
613	11481	2.203632258383	1
613	11482	2.203632258383	2
613	11584	2.204136258383	1
613	11584	2.204136258383	0
613	11695	2.224392568987	1
613	11696	2.224392568987	2
613	11797	2.224896568987	1
613	11797	2.224896568987	0
613	11940	2.35537496109	1
613	11941	2.35537496109	2
613	12042	2.35587896109	1
613	12042	2.35587896109	0
613	12161	2.427785181367	1
613	12162	2.427785181367	2
613	12263	2.428289181367	1
613	12263	2.428289181367	0
613	12391	2.510945140931	1
613	12392	2.510945140931	2
613	12493	2.511449140931	1
613	12493	2.511449140931	0
613	12617	2.557284451101	1
613	12618	2.557284451101	2
613	12719	2.557788451101	1
613	12719	2.557788451101	0
613	12893	2.766691590439	1
613	12894	2.766691590439	2
613	12995	2.767195590439	1
613	12995	2.767195590439	0
613	13104	2.797231126714	1
613	13105	2.797231126714	2
613	13206	2.797735126714	1
613	13206	2.797735126714	0
613	13338	2.9041609168	1
613	13339	2.9041609168	2
613	13440	2.9046649168	1
613	13440	2.9046649168	0
613	13593	3.035602569303	1
613	13594	3.035602569303	2
613	13695	3.036106569303	1
613	13695	3.036106569303	0
613	13806	3.047069259048	1
613	13807	3.047069259048	2
613	13908	3.047573259048	1
613	13908	3.047573259048	0
613	14029	3.098896092681	1
613	14030	3.098896092681	2
613	14131	3.099400092681	1
613	14131	3.099400092681	0
613	14278	3.268544261589	1
613	14279	3.268544261589	2
613	14380	3.269048261589	1
613	14380	3.269048261589	0
613	14488	3.281337383781	1
613	14489	3.281337383781	2
613	14590	3.281841383781	1
613	14590	3.281841383781	0
613	14712	3.363960389606	1
613	14713	3.363960389606	2
613	14814	3.364464389606	1
613	14814	3.364464389606	0
613	14926	3.417042127281	1
613	14927	3.417042127281	2
613	15028	3.417546127281	1
613	15028	3.417546127281	0
613	15140	3.433131480304	1
613	15141	3.433131480304	2
613	15242	3.433635480304	1
613	15242	3.433635480304	0
613	15368	3.477868242614	1
613	15369	3.477868242614	2
613	15470	3.478372242614	1
613	15470	3.478372242614	0
613	15586	3.523852996972	1
613	15587	3.523852996972	2
613	15688	3.524356996972	1
613	15688	3.524356996972	0
613	15797	3.570517620048	1
613	15798	3.570517620048	2
613	15899	3.571021620048	1
613	15899	3.571021620048	0
613	16013	3.593106487692	1
613	16014	3.593106487692	2
613	16115	3.593610487692	1
613	16115	3.593610487692	0
613	16224	3.612674117296	1
613	16225	3.612674117296	2
613	16329	3.613178117296	1
613	16329	3.613178117296	0
613	16471	3.728415667852	1
613	16472	3.728415667852	2
613	16573	3.728919667852	1
613	16573	3.728919667852	0
613	16702	3.856208244154	1
613	16703	3.856208244154	2
613	16807	3.856712244154	1
613	16807	3.856712244154	0
613	16914	3.860923386828	1
613	16915	3.860923386828	2
613	17016	3.861427386828	1
613	17016	3.861427386828	0
613	17145	3.922394225198	1
613	17146	3.922394225198	2
613	17247	3.922898225198	1
613	17247	3.922898225198	0
613	17358	3.974297206079	1
613	17359	3.974297206079	2
613	17460	3.974801206079	1
613	17460	3.974801206079	0
613	17564	3.976392850936	1
613	17565	3.976392850936	2
613	17666	3.976896850936	1
613	17666	3.976896850936	0
613	17786	4.035602569303	1
613	17787	4.035602569303	2
613	17888	4.036106569303	1
613	17888	4.036106569303	0
613	17991	4.047069259048	1
613	17992	4.047069259048	2
613	18093	4.047573259048	1
613	18093	4.047573259048	0
613	18208	4.098896092681	1
613	18209	4.098896092681	2
613	18310	4.099400092681	1
613	18310	4.099400092681	0
613	18493	4.268544261589	1
613	18494	4.268544261589	2
613	18595	4.269048261589	1
613	18595	4.269048261589	0
614	405	0.007958745046	51
614	611	0.015057924318	51
614	822	0.036903175292	51
614	1028	0.042131875593	51
614	1234	0.042848629436	51
614	1446	0.06025158638	51
614	1660	0.136844692036	51
614	1870	0.180168750377	51
614	2083	0.193552800356	51
614	2289	0.195531095431	51
614	2495	0.197406284943	51
614	2702	0.203632258383	51
614	2912	0.224392568987	51
614	3141	0.35537496109	51
614	3358	0.427785181367	51
614	3587	0.510945140931	51
614	3809	0.557284451101	51
614	4075	0.766691590439	51
614	4291	0.797231126714	51
614	4542	0.9041609168	51
614	4772	1.007958745046	51
614	4976	1.015057924318	51
614	5188	1.036903175292	51
614	5392	1.042131875593	51
614	5596	1.042848629436	51
614	5803	1.06025158638	51
614	6024	1.136844692036	51
614	6241	1.180168750377	51
614	6446	1.193552800356	51
614	6650	1.195531095431	51
614	6857	1.197406284943	51
614	7065	1.203632258383	51
614	7273	1.224392568987	51
614	7494	1.35537496109	51
614	7739	1.427785181367	51
614	7981	1.510945140931	51
614	8204	1.557284451101	51
614	8483	1.766691590439	51
614	8703	1.797231126714	51
614	8934	1.9041609168	51
614	9161	2.007958745046	51
614	9371	2.015057924318	51
614	9586	2.036903175292	51
614	9790	2.042131875593	51
614	9997	2.042848629436	51
614	10219	2.06025158638	51
614	10449	2.136844692036	51
614	10657	2.180168750377	51
614	10868	2.193552800356	51
614	11072	2.195531095431	51
614	11276	2.197406284943	51
614	11481	2.203632258383	51
614	11695	2.224392568987	51
614	11940	2.35537496109	51
614	12161	2.427785181367	51
614	12391	2.510945140931	51
614	12617	2.557284451101	51
614	12893	2.766691590439	51
614	13104	2.797231126714	51
614	13338	2.9041609168	51
614	13593	3.035602569303	51
614	13806	3.047069259048	51
614	14029	3.098896092681	51
614	14278	3.268544261589	51
614	14488	3.281337383781	51
614	14712	3.363960389606	51
614	14926	3.417042127281	51
614	15140	3.433131480304	51
614	15368	3.477868242614	51
614	15586	3.523852996972	51
614	15797	3.570517620048	51
614	16013	3.593106487692	51
614	16224	3.612674117296	51
614	16471	3.728415667852	51
614	16702	3.856208244154	51
614	16914	3.860923386828	51
614	17145	3.922394225198	51
614	17358	3.974297206079	51
614	17564	3.976392850936	51
614	17786	4.035602569303	51
614	17991	4.047069259048	51
614	18208	4.098896092681	51
614	18493	4.268544261589	51
615	13576	3.007958745046	1028
615	13576	3.007958745046	1028
615	13576	3.007958745046	1028
615	13576	3.007958745046	1028
615	13576	3.007958745046	1028
615	13576	3.007958745046	1028
615	13576	3.007958745046	1028
615	13576	3.007958745046	1028
615	13576	3.007958745046	1028
615	13576	3.007958745046	1028
615	13576	3.007958745046	1028
615	13576	3.007958745046	1028
615	13576	3.007958745046	1028
615	13576	3.007958745046	1028
615	13576	3.007958745046	1028
615	13576	3.007958745046	1028
615	13576	3.007958745046	1028
615	13580	3.015057924318	1028
615	13580	3.015057924318	1028
615	13580	3.015057924318	1028
615	13580	3.015057924318	1028
615	13580	3.015057924318	1028
615	13580	3.015057924318	1028
615	13580	3.015057924318	1028
615	13580	3.015057924318	1028
615	13580	3.015057924318	1028
615	13580	3.015057924318	1028
615	13580	3.015057924318	1028
615	13580	3.015057924318	1028
615	13796	3.036903175292	1028
615	13796	3.036903175292	1028
615	13796	3.036903175292	1028
615	13796	3.036903175292	1028
615	13796	3.036903175292	1028
615	13796	3.036903175292	1028
615	13796	3.036903175292	1028
615	13796	3.036903175292	1028
615	13796	3.036903175292	1028
615	13796	3.036903175292	1028
615	13796	3.036903175292	1028
615	13796	3.036903175292	1028
615	13796	3.036903175292	1028
615	13796	3.036903175292	1028
615	13796	3.036903175292	1028
615	13796	3.036903175292	1028
615	13796	3.036903175292	1028
615	13796	3.036903175292	1028
615	13800	3.042131875593	1028
615	13800	3.042131875593	1028
615	13800	3.042131875593	1028
615	13800	3.042131875593	1028
615	13800	3.042131875593	1028
615	13800	3.042131875593	1028
615	13800	3.042131875593	1028
615	13800	3.042131875593	1028
615	13800	3.042131875593	1028
615	13800	3.042131875593	1028
615	13800	3.042131875593	1028
615	13800	3.042131875593	1028
615	13800	3.042131875593	1028
615	13800	3.042131875593	1028
615	13800	3.042131875593	1028
615	13800	3.042131875593	1028
615	13801	3.042848629436	1028
615	13801	3.042848629436	1028
615	13801	3.042848629436	1028
615	13801	3.042848629436	1028
615	13801	3.042848629436	1028
615	13801	3.042848629436	1028
615	13801	3.042848629436	1028
615	13801	3.042848629436	1028
615	13801	3.042848629436	1028
615	13801	3.042848629436	1028
615	13801	3.042848629436	1028
615	13801	3.042848629436	1028
615	13801	3.042848629436	1028
615	13801	3.042848629436	1028
615	13801	3.042848629436	1028
615	14019	3.06025158638	1028
615	14019	3.06025158638	1028
615	14019	3.06025158638	1028
615	14019	3.06025158638	1028
615	14019	3.06025158638	1028
615	14019	3.06025158638	1028
615	14019	3.06025158638	1028
615	14019	3.06025158638	1028
615	14019	3.06025158638	1028
615	14019	3.06025158638	1028
615	14019	3.06025158638	1028
615	14019	3.06025158638	1028
615	14019	3.06025158638	1028
615	14019	3.06025158638	1028
615	14019	3.06025158638	1028
615	14019	3.06025158638	1028
615	14019	3.06025158638	1028
615	14019	3.06025158638	1028
615	14246	3.136844692036	1028
615	14246	3.136844692036	1028
615	14246	3.136844692036	1028
615	14246	3.136844692036	1028
615	14246	3.136844692036	1028
615	14246	3.136844692036	1028
615	14246	3.136844692036	1028
615	14246	3.136844692036	1028
615	14246	3.136844692036	1028
615	14246	3.136844692036	1028
615	14246	3.136844692036	1028
615	14246	3.136844692036	1028
615	14246	3.136844692036	1028
615	14246	3.136844692036	1028
615	14246	3.136844692036	1028
615	14246	3.136844692036	1028
615	14246	3.136844692036	1028
615	14246	3.136844692036	1028
615	14246	3.136844692036	1028
615	14246	3.136844692036	1028
615	14250	3.180168750377	1028
615	14250	3.180168750377	1028
615	14250	3.180168750377	1028
615	14250	3.180168750377	1028
615	14250	3.180168750377	1028
615	14250	3.180168750377	1028
615	14250	3.180168750377	1028
615	14250	3.180168750377	1028
615	14250	3.180168750377	1028
615	14250	3.180168750377	1028
615	14250	3.180168750377	1028
615	14250	3.180168750377	1028
615	14250	3.180168750377	1028
615	14250	3.180168750377	1028
615	14250	3.180168750377	1028
615	14250	3.180168750377	1028
615	14250	3.180168750377	1028
615	14250	3.180168750377	1028
615	14254	3.193552800356	1028
615	14254	3.193552800356	1028
615	14254	3.193552800356	1028
615	14254	3.193552800356	1028
615	14254	3.193552800356	1028
615	14254	3.193552800356	1028
615	14254	3.193552800356	1028
615	14254	3.193552800356	1028
615	14254	3.193552800356	1028
615	14254	3.193552800356	1028
615	14254	3.193552800356	1028
615	14254	3.193552800356	1028
615	14254	3.193552800356	1028
615	14254	3.193552800356	1028
615	14254	3.193552800356	1028
615	14254	3.193552800356	1028
615	14254	3.193552800356	1028
615	14254	3.193552800356	1028
615	14255	3.195531095431	1028
615	14255	3.195531095431	1028
615	14255	3.195531095431	1028
615	14255	3.195531095431	1028
615	14255	3.195531095431	1028
615	14255	3.195531095431	1028
615	14255	3.195531095431	1028
615	14255	3.195531095431	1028
615	14255	3.195531095431	1028
615	14255	3.195531095431	1028
615	14255	3.195531095431	1028
615	14255	3.195531095431	1028
615	14255	3.195531095431	1028
615	14255	3.195531095431	1028
615	14255	3.195531095431	1028
615	14255	3.195531095431	1028
615	14255	3.195531095431	1028
615	14256	3.197406284943	1028
615	14256	3.197406284943	1028
615	14256	3.197406284943	1028
615	14256	3.197406284943	1028
615	14256	3.197406284943	1028
615	14256	3.197406284943	1028
615	14256	3.197406284943	1028
615	14256	3.197406284943	1028
615	14256	3.197406284943	1028
615	14256	3.197406284943	1028
615	14256	3.197406284943	1028
615	14256	3.197406284943	1028
615	14256	3.197406284943	1028
615	14256	3.197406284943	1028
615	14256	3.197406284943	1028
615	14261	3.203632258383	1028
615	14261	3.203632258383	1028
615	14261	3.203632258383	1028
615	14261	3.203632258383	1028
615	14261	3.203632258383	1028
615	14261	3.203632258383	1028
615	14261	3.203632258383	1028
615	14261	3.203632258383	1028
615	14261	3.203632258383	1028
615	14261	3.203632258383	1028
615	14261	3.203632258383	1028
615	14261	3.203632258383	1028
615	14261	3.203632258383	1028
615	14274	3.224392568987	1028
615	14274	3.224392568987	1028
615	14274	3.224392568987	1028
615	14274	3.224392568987	1028
615	14274	3.224392568987	1028
615	14274	3.224392568987	1028
615	14274	3.224392568987	1028
615	14274	3.224392568987	1028
615	14274	3.224392568987	1028
615	14274	3.224392568987	1028
615	14274	3.224392568987	1028
615	14274	3.224392568987	1028
615	14274	3.224392568987	1028
615	14274	3.224392568987	1028
615	14708	3.35537496109	1028
615	14708	3.35537496109	1028
615	14708	3.35537496109	1028
615	14708	3.35537496109	1028
615	14708	3.35537496109	1028
615	14708	3.35537496109	1028
615	14708	3.35537496109	1028
615	14708	3.35537496109	1028
615	14708	3.35537496109	1028
615	14708	3.35537496109	1028
615	14708	3.35537496109	1028
615	14708	3.35537496109	1028
615	14708	3.35537496109	1028
615	15133	3.427785181367	1028
615	15133	3.427785181367	1028
615	15133	3.427785181367	1028
615	15133	3.427785181367	1028
615	15133	3.427785181367	1028
615	15133	3.427785181367	1028
615	15133	3.427785181367	1028
615	15133	3.427785181367	1028
615	15133	3.427785181367	1028
615	15133	3.427785181367	1028
615	15133	3.427785181367	1028
615	15133	3.427785181367	1028
615	15133	3.427785181367	1028
615	15133	3.427785181367	1028
615	15133	3.427785181367	1028
615	15133	3.427785181367	1028
615	15133	3.427785181367	1028
615	15579	3.510945140931	1028
615	15579	3.510945140931	1028
615	15579	3.510945140931	1028
615	15579	3.510945140931	1028
615	15579	3.510945140931	1028
615	15579	3.510945140931	1028
615	15579	3.510945140931	1028
615	15579	3.510945140931	1028
615	15579	3.510945140931	1028
615	15579	3.510945140931	1028
615	15579	3.510945140931	1028
615	15579	3.510945140931	1028
615	15579	3.510945140931	1028
615	15579	3.510945140931	1028
615	15579	3.510945140931	1028
615	15579	3.510945140931	1028
615	15579	3.510945140931	1028
615	15793	3.557284451101	1028
615	15793	3.557284451101	1028
615	15793	3.557284451101	1028
615	15793	3.557284451101	1028
615	15793	3.557284451101	1028
615	15793	3.557284451101	1028
615	15793	3.557284451101	1028
615	15793	3.557284451101	1028
615	15793	3.557284451101	1028
615	15793	3.557284451101	1028
615	15793	3.557284451101	1028
615	15793	3.557284451101	1028
615	15793	3.557284451101	1028
615	15793	3.557284451101	1028
615	15793	3.557284451101	1028
615	15793	3.557284451101	1028
615	15793	3.557284451101	1028
615	15793	3.557284451101	1028
615	16678	3.766691590439	1028
615	16678	3.766691590439	1028
615	16678	3.766691590439	1028
615	16678	3.766691590439	1028
615	16678	3.766691590439	1028
615	16678	3.766691590439	1028
615	16678	3.766691590439	1028
615	16678	3.766691590439	1028
615	16678	3.766691590439	1028
615	16678	3.766691590439	1028
615	16678	3.766691590439	1028
615	16679	3.797231126714	1028
615	16679	3.797231126714	1028
615	16679	3.797231126714	1028
615	16679	3.797231126714	1028
615	16679	3.797231126714	1028
615	16679	3.797231126714	1028
615	16679	3.797231126714	1028
615	16679	3.797231126714	1028
615	16679	3.797231126714	1028
615	16679	3.797231126714	1028
615	16679	3.797231126714	1028
615	16679	3.797231126714	1028
615	16679	3.797231126714	1028
615	16679	3.797231126714	1028
615	16679	3.797231126714	1028
615	16679	3.797231126714	1028
615	17135	3.9041609168	1028
615	17135	3.9041609168	1028
615	17135	3.9041609168	1028
615	17135	3.9041609168	1028
615	17135	3.9041609168	1028
615	17135	3.9041609168	1028
615	17135	3.9041609168	1028
615	17135	3.9041609168	1028
615	17135	3.9041609168	1028
615	17135	3.9041609168	1028
615	17135	3.9041609168	1028
615	17135	3.9041609168	1028
615	17135	3.9041609168	1028
615	17135	3.9041609168	1028
615	17135	3.9041609168	1028
615	17135	3.9041609168	1028
615	17135	3.9041609168	1028
615	17135	3.9041609168	1028
615	17135	3.9041609168	1028
616	18598	4.269048428829	51
617	18598	4.269048428829	28

