version 3
run Wireless05-0-20241206-22:40:31-4992
attr configname Wireless05
attr datetime 20241206-22:40:31
attr datetimef 20241206-224031
attr experiment Wireless05
attr inifile omnetpp.ini
attr iterationvars ""
attr iterationvarsd ""
attr iterationvarsf ""
attr measurement ""
attr network WirelessC
attr processid 4992
attr repetition 0
attr replication #0
attr resultdir results
attr runnumber 0
attr seedset 0
config image-path ../../../../../IoTOMNetpp/omnetpp-6.0.3/samples/inet4.3/images
config description "More nodes"
config network WirelessC
config sim-time-limit 200s
config *.host*.ipv4.arp.typename GlobalArp
config *.scenarioManager.script "xmldoc(\"scenarioB.xml\")"
config *.host*.numApps 1
config *.host*.app[0].typename SensorApp
config *.host*.app[0].localPort 5000
config *.host*.wlan[0].typename AckingWirelessInterface
config *.host*.wlan[0].mac.useAck false
config *.host*.wlan[0].mac.fullDuplex false
config *.host*.wlan[0].radio.transmitter.communicationRange 50m
config *.host*.wlan[0].radio.receiver.ignoreInterference true
config *.host*.wlan[0].mac.headerLength 23B
config *.host*.**.bitrate 1Mbps
config *.host*.wlan[0].radio.displayCommunicationRange true
config *.mobileHost.numApps 1
config *.mobileHost.app[0].typename DataCollectorApp
config *.mobileHost.app[0].destAddresses "\"host*\""
config *.mobileHost.app[0].destPort 5000
config *.mobileHost.app[0].localPort 5001
config *.mobileHost.app[0].messageLength 1000B
config *.mobileHost.app[0].sendInterval exponential(300s)
config *.mobileHost.app[0].packetName "\"UDPData\""
config *.mobileHost.wlan[0].typename AckingWirelessInterface
config *.mobileHost.wlan[0].mac.useAck false
config *.mobileHost.wlan[0].mac.fullDuplex false
config *.mobileHost.wlan[0].radio.transmitter.communicationRange 50m
config *.mobileHost.wlan[0].radio.receiver.ignoreInterference true
config *.mobileHost.wlan[0].mac.headerLength 23B
config *.mobileHost.**.bitrate 1Mbps
config *.mobileHost.wlan[0].radio.displayCommunicationRange true
config **.mobileHost.mobility.typename TurtleMobility
config **.mobileHost.mobility.turtleScript "xmldoc(\"movements.xml\", \"movements//movement[@id='2']\")"
config *.mobileHost.wlan[0].queue.packetCapacity 10
config *.visualizer.mobilityVisualizer.displayVelocities true
config *.visualizer.mobilityVisualizer.displayMovementTrails true
config **.scenarioManager.script "xmldoc(\"scenario.xml\")"

par WirelessC.visualizer.sceneVisualizer typename "\"inet.visualizer.canvas.scene.SceneCanvasVisualizer\""
par WirelessC.visualizer.sceneVisualizer visualizationTargetModule "\"^.^\""
par WirelessC.visualizer.sceneVisualizer visualizationSubjectModule "\"^.^\""
par WirelessC.visualizer.sceneVisualizer tags "\"\""
par WirelessC.visualizer.sceneVisualizer physicalEnvironmentModule "\"physicalEnvironment\""
par WirelessC.visualizer.sceneVisualizer networkNodeVisualizerModule "\"^.networkNodeVisualizer\""
par WirelessC.visualizer.sceneVisualizer axisLength "nan m"
attr mutable ""
attr unit m
par WirelessC.visualizer.sceneVisualizer animationSpeed 0
par WirelessC.visualizer.sceneVisualizer sceneMinX "nan m"
attr unit m
par WirelessC.visualizer.sceneVisualizer sceneMinY "nan m"
attr unit m
par WirelessC.visualizer.sceneVisualizer sceneMinZ "nan m"
attr unit m
par WirelessC.visualizer.sceneVisualizer sceneMaxX "nan m"
attr unit m
par WirelessC.visualizer.sceneVisualizer sceneMaxY "nan m"
attr unit m
par WirelessC.visualizer.sceneVisualizer sceneMaxZ "nan m"
attr unit m
par WirelessC.visualizer.sceneVisualizer zIndex 0
par WirelessC.visualizer.sceneVisualizer viewAngle "\"x right y down z out\""
attr mutable ""
par WirelessC.visualizer.sceneVisualizer viewScale "\"1 1\""
attr mutable ""
par WirelessC.visualizer.sceneVisualizer viewTranslation "\"0 0\""
attr mutable ""
par WirelessC.visualizer.sceneVisualizer descriptionFigure "\"\""
par WirelessC.visualizer.physicalEnvironmentVisualizer typename "\"inet.visualizer.canvas.environment.PhysicalEnvironmentCanvasVisualizer\""
par WirelessC.visualizer.physicalEnvironmentVisualizer visualizationTargetModule "\"^.^\""
par WirelessC.visualizer.physicalEnvironmentVisualizer visualizationSubjectModule "\"^.^\""
par WirelessC.visualizer.physicalEnvironmentVisualizer tags "\"\""
par WirelessC.visualizer.physicalEnvironmentVisualizer physicalEnvironmentModule "\"physicalEnvironment\""
par WirelessC.visualizer.physicalEnvironmentVisualizer displayObjects true
par WirelessC.visualizer.physicalEnvironmentVisualizer zIndex 0
par WirelessC.visualizer.networkNodeVisualizer typename "\"inet.visualizer.canvas.scene.NetworkNodeCanvasVisualizer\""
par WirelessC.visualizer.networkNodeVisualizer visualizationTargetModule "\"^.^\""
par WirelessC.visualizer.networkNodeVisualizer visualizationSubjectModule "\"^.^\""
par WirelessC.visualizer.networkNodeVisualizer tags "\"\""
par WirelessC.visualizer.networkNodeVisualizer nodeFilter "\"*\""
attr mutable ""
par WirelessC.visualizer.networkNodeVisualizer annotationSpacing 4
par WirelessC.visualizer.networkNodeVisualizer placementPenalty 10
par WirelessC.visualizer.networkNodeVisualizer zIndex 0
par WirelessC.visualizer.networkConnectionVisualizer typename "\"inet.visualizer.canvas.scene.NetworkConnectionCanvasVisualizer\""
par WirelessC.visualizer.networkConnectionVisualizer visualizationTargetModule "\"^.^\""
par WirelessC.visualizer.networkConnectionVisualizer visualizationSubjectModule "\"^.^\""
par WirelessC.visualizer.networkConnectionVisualizer tags "\"\""
par WirelessC.visualizer.networkConnectionVisualizer displayNetworkConnections true
par WirelessC.visualizer.networkConnectionVisualizer nodeFilter "\"\""
attr mutable ""
par WirelessC.visualizer.networkConnectionVisualizer lineColor "\"black\""
par WirelessC.visualizer.networkConnectionVisualizer lineStyle "\"solid\""
par WirelessC.visualizer.networkConnectionVisualizer lineWidth 1
par WirelessC.visualizer.networkConnectionVisualizer zIndex 0
par WirelessC.visualizer.mobilityVisualizer typename "\"inet.visualizer.canvas.mobility.MobilityCanvasVisualizer\""
par WirelessC.visualizer.mobilityVisualizer visualizationTargetModule "\"^.^\""
par WirelessC.visualizer.mobilityVisualizer visualizationSubjectModule "\"^.^\""
par WirelessC.visualizer.mobilityVisualizer tags "\"\""
par WirelessC.visualizer.mobilityVisualizer networkNodeVisualizerModule "\"^.networkNodeVisualizer\""
par WirelessC.visualizer.mobilityVisualizer displayMobility true
par WirelessC.visualizer.mobilityVisualizer animationSpeed 0
par WirelessC.visualizer.mobilityVisualizer moduleFilter "\"**.mobility\""
attr mutable ""
par WirelessC.visualizer.mobilityVisualizer displayPositions false
par WirelessC.visualizer.mobilityVisualizer positionCircleRadius 4
par WirelessC.visualizer.mobilityVisualizer positionCircleLineWidth 1
par WirelessC.visualizer.mobilityVisualizer positionCircleLineColor "\"dark\""
attr enum light,dark
par WirelessC.visualizer.mobilityVisualizer positionCircleFillColor "\"dark\""
attr enum light,dark
par WirelessC.visualizer.mobilityVisualizer displayOrientations false
par WirelessC.visualizer.mobilityVisualizer orientationPieRadius 32
par WirelessC.visualizer.mobilityVisualizer orientationPieSize 0.2
par WirelessC.visualizer.mobilityVisualizer orientationPieOpacity 0.25
par WirelessC.visualizer.mobilityVisualizer orientationLineColor "\"black\""
par WirelessC.visualizer.mobilityVisualizer orientationLineStyle "\"solid\""
par WirelessC.visualizer.mobilityVisualizer orientationLineWidth 1
par WirelessC.visualizer.mobilityVisualizer orientationFillColor "\"blue\""
par WirelessC.visualizer.mobilityVisualizer displayVelocities true
par WirelessC.visualizer.mobilityVisualizer velocityArrowScale 1
par WirelessC.visualizer.mobilityVisualizer velocityLineColor "\"black\""
par WirelessC.visualizer.mobilityVisualizer velocityLineStyle "\"solid\""
par WirelessC.visualizer.mobilityVisualizer velocityLineWidth 1
par WirelessC.visualizer.mobilityVisualizer displayMovementTrails true
par WirelessC.visualizer.mobilityVisualizer movementTrailLineColor "\"dark\""
attr enum light,dark
par WirelessC.visualizer.mobilityVisualizer movementTrailLineStyle "\"solid\""
par WirelessC.visualizer.mobilityVisualizer movementTrailLineWidth 1
par WirelessC.visualizer.mobilityVisualizer trailLength 100
par WirelessC.visualizer.mobilityVisualizer zIndex 0
par WirelessC.visualizer.statisticVisualizer typename "\"inet.visualizer.canvas.common.StatisticCanvasVisualizer\""
par WirelessC.visualizer.statisticVisualizer visualizationTargetModule "\"^.^\""
par WirelessC.visualizer.statisticVisualizer visualizationSubjectModule "\"^.^\""
par WirelessC.visualizer.statisticVisualizer tags "\"\""
par WirelessC.visualizer.statisticVisualizer networkNodeVisualizerModule "\"^.networkNodeVisualizer\""
par WirelessC.visualizer.statisticVisualizer displayStatistics true
par WirelessC.visualizer.statisticVisualizer signalName "\"\""
par WirelessC.visualizer.statisticVisualizer statisticName "\"\""
par WirelessC.visualizer.statisticVisualizer statisticUnit "\"\""
par WirelessC.visualizer.statisticVisualizer statisticExpression "\"\""
par WirelessC.visualizer.statisticVisualizer sourceFilter "\"**\""
attr mutable ""
par WirelessC.visualizer.statisticVisualizer format "\"%n: %v %u\""
attr mutable ""
par WirelessC.visualizer.statisticVisualizer unit "\"\""
par WirelessC.visualizer.statisticVisualizer font "\"<default>\""
par WirelessC.visualizer.statisticVisualizer textColor "\"black\""
par WirelessC.visualizer.statisticVisualizer backgroundColor "\"white\""
par WirelessC.visualizer.statisticVisualizer opacity 1
par WirelessC.visualizer.statisticVisualizer placementHint "\"top\""
par WirelessC.visualizer.statisticVisualizer placementPriority 0
par WirelessC.visualizer.statisticVisualizer zIndex 10
par WirelessC.visualizer.statisticVisualizer propertyName "\"\""
par WirelessC.visualizer.statisticVisualizer propertyIndex "\"\""
par WirelessC.visualizer.infoVisualizer typename "\"inet.visualizer.canvas.common.InfoCanvasVisualizer\""
par WirelessC.visualizer.infoVisualizer visualizationTargetModule "\"^.^\""
par WirelessC.visualizer.infoVisualizer visualizationSubjectModule "\"^.^\""
par WirelessC.visualizer.infoVisualizer tags "\"\""
par WirelessC.visualizer.infoVisualizer networkNodeVisualizerModule "\"^.networkNodeVisualizer\""
par WirelessC.visualizer.infoVisualizer displayInfos true
par WirelessC.visualizer.infoVisualizer modules "\"\""
attr mutable ""
par WirelessC.visualizer.infoVisualizer format "\"%t\""
attr mutable ""
par WirelessC.visualizer.infoVisualizer font "\"<default>\""
par WirelessC.visualizer.infoVisualizer textColor "\"black\""
par WirelessC.visualizer.infoVisualizer backgroundColor "\"white\""
par WirelessC.visualizer.infoVisualizer opacity 1
par WirelessC.visualizer.infoVisualizer placementHint "\"top\""
par WirelessC.visualizer.infoVisualizer placementPriority 0
par WirelessC.visualizer.infoVisualizer zIndex 10
par WirelessC.visualizer.energyStorageVisualizer typename "\"inet.visualizer.canvas.power.EnergyStorageCanvasVisualizer\""
par WirelessC.visualizer.energyStorageVisualizer visualizationTargetModule "\"^.^\""
par WirelessC.visualizer.energyStorageVisualizer visualizationSubjectModule "\"^.^\""
par WirelessC.visualizer.energyStorageVisualizer tags "\"\""
par WirelessC.visualizer.energyStorageVisualizer networkNodeVisualizerModule "\"^.networkNodeVisualizer\""
par WirelessC.visualizer.energyStorageVisualizer displayEnergyStorages false
par WirelessC.visualizer.energyStorageVisualizer energyStorageFilter "\"**\""
par WirelessC.visualizer.energyStorageVisualizer color "\"green\""
par WirelessC.visualizer.energyStorageVisualizer width 8
par WirelessC.visualizer.energyStorageVisualizer height 24
par WirelessC.visualizer.energyStorageVisualizer spacing 2
par WirelessC.visualizer.energyStorageVisualizer placementHint "\"right\""
par WirelessC.visualizer.energyStorageVisualizer placementPriority 0
par WirelessC.visualizer.energyStorageVisualizer zIndex 10
par WirelessC.visualizer.mediumVisualizer typename "\"inet.visualizer.canvas.physicallayer.MediumCanvasVisualizer\""
par WirelessC.visualizer.mediumVisualizer visualizationTargetModule "\"^.^\""
par WirelessC.visualizer.mediumVisualizer visualizationSubjectModule "\"^.^\""
par WirelessC.visualizer.mediumVisualizer tags "\"\""
par WirelessC.visualizer.mediumVisualizer mediumModule "\"radioMedium\""
par WirelessC.visualizer.mediumVisualizer networkNodeVisualizerModule "\"^.networkNodeVisualizer\""
par WirelessC.visualizer.mediumVisualizer nodeFilter "\"*\""
attr mutable ""
par WirelessC.visualizer.mediumVisualizer interfaceFilter "\"*\""
attr mutable ""
par WirelessC.visualizer.mediumVisualizer packetFilter "\"*\""
attr mutable ""
par WirelessC.visualizer.mediumVisualizer packetDataFilter "\"*\""
attr mutable ""
par WirelessC.visualizer.mediumVisualizer displaySignals false
par WirelessC.visualizer.mediumVisualizer signalColor "\"dark\""
attr enum light,dark
par WirelessC.visualizer.mediumVisualizer signalPropagationAnimationSpeed "nan "
attr mutable ""
par WirelessC.visualizer.mediumVisualizer signalPropagationAnimationTime 1s
attr unit s
par WirelessC.visualizer.mediumVisualizer signalPropagationAdditionalTime 0s
attr unit s
par WirelessC.visualizer.mediumVisualizer signalTransmissionAnimationSpeed "nan "
attr mutable ""
par WirelessC.visualizer.mediumVisualizer signalTransmissionAnimationTime 1s
attr unit s
par WirelessC.visualizer.mediumVisualizer signalAnimationSpeedChangeTimeMode "\"realTime\""
attr enum realTime,animationTime,simulationTime
par WirelessC.visualizer.mediumVisualizer signalAnimationSpeedChangeTime 1s
attr unit s
par WirelessC.visualizer.mediumVisualizer displaySignalDepartures false
par WirelessC.visualizer.mediumVisualizer signalDepartureImage "\"misc/signal_departure.png\""
par WirelessC.visualizer.mediumVisualizer signalDeparturePlacementHint "\"topCenter\""
par WirelessC.visualizer.mediumVisualizer signalDeparturePlacementPriority 1
par WirelessC.visualizer.mediumVisualizer displaySignalArrivals false
par WirelessC.visualizer.mediumVisualizer signalArrivalImage "\"misc/signal_arrival.png\""
par WirelessC.visualizer.mediumVisualizer signalArrivalPlacementHint "\"topCenter\""
par WirelessC.visualizer.mediumVisualizer signalArrivalPlacementPriority -1
par WirelessC.visualizer.mediumVisualizer displayCommunicationRanges false
par WirelessC.visualizer.mediumVisualizer communicationRangeLineColor "\"blue\""
par WirelessC.visualizer.mediumVisualizer communicationRangeLineStyle "\"solid\""
par WirelessC.visualizer.mediumVisualizer communicationRangeLineWidth 1
par WirelessC.visualizer.mediumVisualizer displayInterferenceRanges false
par WirelessC.visualizer.mediumVisualizer interferenceRangeLineColor "\"gray\""
par WirelessC.visualizer.mediumVisualizer interferenceRangeLineStyle "\"solid\""
par WirelessC.visualizer.mediumVisualizer interferenceRangeLineWidth 1
par WirelessC.visualizer.mediumVisualizer autoPowerAxis true
par WirelessC.visualizer.mediumVisualizer signalMinPower "inf dBmW"
attr unit dBmW
par WirelessC.visualizer.mediumVisualizer signalMaxPower 0dBmW
attr unit dBmW
par WirelessC.visualizer.mediumVisualizer signalMinPowerDensity "inf dBmWpMHz"
attr unit dBmWpMHz
par WirelessC.visualizer.mediumVisualizer signalMaxPowerDensity "-inf dBmWpMHz"
attr unit dBmWpMHz
par WirelessC.visualizer.mediumVisualizer autoTimeAxis true
par WirelessC.visualizer.mediumVisualizer signalMinTime 0s
attr unit s
par WirelessC.visualizer.mediumVisualizer signalMaxTime 0s
attr unit s
par WirelessC.visualizer.mediumVisualizer autoFrequencyAxis true
par WirelessC.visualizer.mediumVisualizer signalMinFrequency "inf Hz"
attr unit Hz
par WirelessC.visualizer.mediumVisualizer signalMaxFrequency "-inf Hz"
attr unit Hz
par WirelessC.visualizer.mediumVisualizer displayMainPowerDensityMap false
par WirelessC.visualizer.mediumVisualizer mainPowerDensityMapPixmapDensity 1
par WirelessC.visualizer.mediumVisualizer mainPowerDensityMapMinX 0
par WirelessC.visualizer.mediumVisualizer mainPowerDensityMapMaxX "nan "
par WirelessC.visualizer.mediumVisualizer mainPowerDensityMapMinY 0
par WirelessC.visualizer.mediumVisualizer mainPowerDensityMapMaxY "nan "
par WirelessC.visualizer.mediumVisualizer mainPowerDensityMapZ 0
par WirelessC.visualizer.mediumVisualizer mainPowerDensityMapFigureXTickCount 3
par WirelessC.visualizer.mediumVisualizer mainPowerDensityMapFigureYTickCount 3
par WirelessC.visualizer.mediumVisualizer displayPowerDensityMaps false
par WirelessC.visualizer.mediumVisualizer powerDensityMapMode "\"auto\""
attr enum total,signal,auto
par WirelessC.visualizer.mediumVisualizer powerDensityMapPixelMode "\"mean\""
attr enum sample,partition,mean
par WirelessC.visualizer.mediumVisualizer powerDensityMapApproximationSize 10
par WirelessC.visualizer.mediumVisualizer powerDensityMapCenterFrequency "nan Hz"
attr mutable ""
attr unit Hz
par WirelessC.visualizer.mediumVisualizer powerDensityMapBandwidth 0Hz
attr mutable ""
attr unit Hz
par WirelessC.visualizer.mediumVisualizer powerDensityMapFigureWidth 200
par WirelessC.visualizer.mediumVisualizer powerDensityMapFigureHeight 120
par WirelessC.visualizer.mediumVisualizer powerDensityMapPixmapWidth 200
par WirelessC.visualizer.mediumVisualizer powerDensityMapPixmapHeight 120
par WirelessC.visualizer.mediumVisualizer powerDensityMapZ 0
par WirelessC.visualizer.mediumVisualizer powerDensityMapFigureXTickCount 3
par WirelessC.visualizer.mediumVisualizer powerDensityMapFigureYTickCount 3
par WirelessC.visualizer.mediumVisualizer displaySpectrums false
par WirelessC.visualizer.mediumVisualizer spectrumMode "\"auto\""
attr enum total,signal,auto
par WirelessC.visualizer.mediumVisualizer spectrumFigureWidth 200
par WirelessC.visualizer.mediumVisualizer spectrumFigureHeight 120
par WirelessC.visualizer.mediumVisualizer spectrumFigureXTickCount 3
par WirelessC.visualizer.mediumVisualizer spectrumFigureYTickCount 5
par WirelessC.visualizer.mediumVisualizer spectrumFigureInterpolationSize 5
par WirelessC.visualizer.mediumVisualizer spectrumPlacementHint "\"bottomCenter\""
par WirelessC.visualizer.mediumVisualizer spectrumPlacementPriority -1
par WirelessC.visualizer.mediumVisualizer displaySpectrograms false
par WirelessC.visualizer.mediumVisualizer spectrogramMode "\"auto\""
attr enum total,signal,auto
par WirelessC.visualizer.mediumVisualizer spectrogramPixelMode "\"mean\""
attr enum sample,partition,mean
par WirelessC.visualizer.mediumVisualizer spectrogramFigureWidth 200
par WirelessC.visualizer.mediumVisualizer spectrogramFigureHeight 120
par WirelessC.visualizer.mediumVisualizer spectrogramPixmapWidth 200
par WirelessC.visualizer.mediumVisualizer spectrogramPixmapHeight 120
par WirelessC.visualizer.mediumVisualizer spectrogramFigureXTickCount 3
par WirelessC.visualizer.mediumVisualizer spectrogramFigureYTickCount 5
par WirelessC.visualizer.mediumVisualizer spectrogramPlacementHint "\"bottomCenter\""
par WirelessC.visualizer.mediumVisualizer spectrogramPlacementPriority -1
par WirelessC.visualizer.mediumVisualizer zIndex 0
par WirelessC.visualizer.mediumVisualizer signalShape "\"ring\""
attr enum ring,sphere
par WirelessC.visualizer.mediumVisualizer signalOpacity 0.5
par WirelessC.visualizer.mediumVisualizer signalRingCount 20
par WirelessC.visualizer.mediumVisualizer signalRingSize 50m
attr unit m
par WirelessC.visualizer.mediumVisualizer signalFadingDistance 50m
attr unit m
par WirelessC.visualizer.mediumVisualizer signalFadingFactor 1.2
par WirelessC.visualizer.mediumVisualizer signalWaveCount 20
par WirelessC.visualizer.mediumVisualizer signalWaveLength 50m
attr unit m
par WirelessC.visualizer.mediumVisualizer signalWaveWidth 10m
attr unit m
par WirelessC.visualizer.mediumVisualizer signalWaveFadingAnimationSpeedFactor 1
par WirelessC.visualizer.mediumVisualizer displayCommunicationHeat false
par WirelessC.visualizer.obstacleLossVisualizer typename "\"inet.visualizer.canvas.physicallayer.TracingObstacleLossCanvasVisualizer\""
par WirelessC.visualizer.obstacleLossVisualizer visualizationTargetModule "\"^.^\""
par WirelessC.visualizer.obstacleLossVisualizer visualizationSubjectModule "\"^.^\""
par WirelessC.visualizer.obstacleLossVisualizer tags "\"\""
par WirelessC.visualizer.obstacleLossVisualizer displayIntersections false
par WirelessC.visualizer.obstacleLossVisualizer intersectionLineColor "\"red\""
par WirelessC.visualizer.obstacleLossVisualizer intersectionLineStyle "\"solid\""
par WirelessC.visualizer.obstacleLossVisualizer intersectionLineWidth 1
par WirelessC.visualizer.obstacleLossVisualizer displayFaceNormalVectors false
par WirelessC.visualizer.obstacleLossVisualizer faceNormalLineColor "\"grey\""
par WirelessC.visualizer.obstacleLossVisualizer faceNormalLineStyle "\"solid\""
par WirelessC.visualizer.obstacleLossVisualizer faceNormalLineWidth 1
par WirelessC.visualizer.obstacleLossVisualizer fadeOutMode "\"realTime\""
attr enum realTime,animationTime,simulationTime
par WirelessC.visualizer.obstacleLossVisualizer fadeOutTime 1s
attr unit s
par WirelessC.visualizer.obstacleLossVisualizer fadeOutAnimationSpeed 0
par WirelessC.visualizer.obstacleLossVisualizer zIndex 0
par WirelessC.visualizer.packetDropVisualizer typename "\"inet.visualizer.canvas.common.PacketDropCanvasVisualizer\""
par WirelessC.visualizer.packetDropVisualizer visualizationTargetModule "\"^.^\""
par WirelessC.visualizer.packetDropVisualizer visualizationSubjectModule "\"^.^\""
par WirelessC.visualizer.packetDropVisualizer tags "\"\""
par WirelessC.visualizer.packetDropVisualizer displayPacketDrops false
par WirelessC.visualizer.packetDropVisualizer nodeFilter "\"*\""
attr mutable ""
par WirelessC.visualizer.packetDropVisualizer interfaceFilter "\"*\""
attr mutable ""
par WirelessC.visualizer.packetDropVisualizer packetFilter "\"*\""
attr mutable ""
par WirelessC.visualizer.packetDropVisualizer packetDataFilter "\"*\""
attr mutable ""
par WirelessC.visualizer.packetDropVisualizer detailsFilter "\"*\""
attr mutable ""
par WirelessC.visualizer.packetDropVisualizer icon "\"msg/packet_s\""
par WirelessC.visualizer.packetDropVisualizer iconTintAmount 1
par WirelessC.visualizer.packetDropVisualizer iconTintColor "\"dark\""
par WirelessC.visualizer.packetDropVisualizer labelFormat "\"%n\""
attr mutable ""
par WirelessC.visualizer.packetDropVisualizer labelFont "\"<default>\""
par WirelessC.visualizer.packetDropVisualizer labelColor "\"black\""
par WirelessC.visualizer.packetDropVisualizer fadeOutMode "\"realTime\""
attr enum realTime,animationTime,simulationTime
par WirelessC.visualizer.packetDropVisualizer fadeOutTime 1s
attr unit s
par WirelessC.visualizer.packetDropVisualizer fadeOutAnimationSpeed 0
par WirelessC.visualizer.packetDropVisualizer zIndex 10
par WirelessC.visualizer.packetDropVisualizer dx 32
par WirelessC.visualizer.packetDropVisualizer dy 64
par WirelessC.visualizer.packetFlowVisualizer typename "\"inet.visualizer.canvas.flow.PacketFlowCanvasVisualizer\""
par WirelessC.visualizer.packetFlowVisualizer visualizationTargetModule "\"^.^\""
par WirelessC.visualizer.packetFlowVisualizer visualizationSubjectModule "\"^.^\""
par WirelessC.visualizer.packetFlowVisualizer tags "\"\""
par WirelessC.visualizer.packetFlowVisualizer displayRoutes false
par WirelessC.visualizer.packetFlowVisualizer startPathSignal "\"packetFlowStarted\""
par WirelessC.visualizer.packetFlowVisualizer extendPathSignal "\"packetReceivedFromLower\""
par WirelessC.visualizer.packetFlowVisualizer endPathSignal "\"packetFlowEnded\""
par WirelessC.visualizer.packetFlowVisualizer nodeFilter "\"*\""
attr mutable ""
par WirelessC.visualizer.packetFlowVisualizer packetFilter "\"*\""
attr mutable ""
par WirelessC.visualizer.packetFlowVisualizer packetDataFilter "\"*\""
attr mutable ""
par WirelessC.visualizer.packetFlowVisualizer lineColor "\"dark\""
attr enum light,dark
par WirelessC.visualizer.packetFlowVisualizer lineStyle "\"dashed\""
par WirelessC.visualizer.packetFlowVisualizer lineWidth 3
par WirelessC.visualizer.packetFlowVisualizer lineSmooth false
par WirelessC.visualizer.packetFlowVisualizer lineShift 16
par WirelessC.visualizer.packetFlowVisualizer lineShiftMode "\"normal\""
par WirelessC.visualizer.packetFlowVisualizer lineContactSpacing 3
par WirelessC.visualizer.packetFlowVisualizer lineContactMode "\"rectangular\""
attr enum circular,rectangular
par WirelessC.visualizer.packetFlowVisualizer labelFormat "\"%L %p pk (%l)\""
par WirelessC.visualizer.packetFlowVisualizer labelFont "\"<default>, 8px\""
par WirelessC.visualizer.packetFlowVisualizer labelColor "\"\""
par WirelessC.visualizer.packetFlowVisualizer fadeOutMode "\"realTime\""
attr enum realTime,animationTime,simulationTime
par WirelessC.visualizer.packetFlowVisualizer fadeOutTime 0s
attr unit s
par WirelessC.visualizer.packetFlowVisualizer fadeOutAnimationSpeed 0
par WirelessC.visualizer.packetFlowVisualizer zIndex 4
par WirelessC.visualizer.queueVisualizer typename "\"inet.visualizer.canvas.common.QueueCanvasVisualizer\""
par WirelessC.visualizer.queueVisualizer visualizationTargetModule "\"^.^\""
par WirelessC.visualizer.queueVisualizer visualizationSubjectModule "\"^.^\""
par WirelessC.visualizer.queueVisualizer tags "\"\""
par WirelessC.visualizer.queueVisualizer networkNodeVisualizerModule "\"^.networkNodeVisualizer\""
par WirelessC.visualizer.queueVisualizer displayQueues false
par WirelessC.visualizer.queueVisualizer queueFilter "\"**\""
par WirelessC.visualizer.queueVisualizer color "\"blue\""
par WirelessC.visualizer.queueVisualizer width 8
par WirelessC.visualizer.queueVisualizer height 24
par WirelessC.visualizer.queueVisualizer spacing 2
par WirelessC.visualizer.queueVisualizer placementHint "\"right\""
par WirelessC.visualizer.queueVisualizer placementPriority 0
par WirelessC.visualizer.queueVisualizer zIndex 10
par WirelessC.visualizer.radioVisualizer typename "\"inet.visualizer.canvas.physicallayer.RadioCanvasVisualizer\""
par WirelessC.visualizer.radioVisualizer visualizationTargetModule "\"^.^\""
par WirelessC.visualizer.radioVisualizer visualizationSubjectModule "\"^.^\""
par WirelessC.visualizer.radioVisualizer tags "\"\""
par WirelessC.visualizer.radioVisualizer networkNodeVisualizerModule "\"^.networkNodeVisualizer\""
par WirelessC.visualizer.radioVisualizer displayRadios false
par WirelessC.visualizer.radioVisualizer displayRadioMode true
par WirelessC.visualizer.radioVisualizer displayReceptionState true
par WirelessC.visualizer.radioVisualizer displayTransmissionState true
par WirelessC.visualizer.radioVisualizer displayAntennaLobes false
par WirelessC.visualizer.radioVisualizer radioFilter "\"**\""
attr mutable ""
par WirelessC.visualizer.radioVisualizer radioModeImages "\"block/process_vs block/timer_vs block/wrx_vs block/wtx_vs block/wrxtx_vs block/cogwheel_vs\""
par WirelessC.visualizer.radioVisualizer receptionStateImages "\"- - misc/receiving misc/receiving\""
par WirelessC.visualizer.radioVisualizer transmissionStateImages "\"- - misc/transmitting\""
par WirelessC.visualizer.radioVisualizer width 16
par WirelessC.visualizer.radioVisualizer height 16
par WirelessC.visualizer.radioVisualizer placementHint "\"bottomRight\""
par WirelessC.visualizer.radioVisualizer placementPriority 0
par WirelessC.visualizer.radioVisualizer antennaLobeNormalize false
par WirelessC.visualizer.radioVisualizer antennaLobeRelativeLabels false
par WirelessC.visualizer.radioVisualizer antennaLobePlaneGlobal true
par WirelessC.visualizer.radioVisualizer antennaLobePlane "\"view\""
attr enum view,xy,xz,yz
par WirelessC.visualizer.radioVisualizer antennaLobeMode "\"logarithmic\""
attr enum logarithmic,linear
par WirelessC.visualizer.radioVisualizer antennaLobeLogarithmicBase 10
par WirelessC.visualizer.radioVisualizer antennaLobeLogarithmicScale 100
par WirelessC.visualizer.radioVisualizer antennaLobeRadius 100
par WirelessC.visualizer.radioVisualizer antennaLobeStep 10deg
attr unit deg
par WirelessC.visualizer.radioVisualizer antennaLobeOpacity 0.25
par WirelessC.visualizer.radioVisualizer antennaLobeLineSmooth true
par WirelessC.visualizer.radioVisualizer antennaLobeLineColor "\"black\""
par WirelessC.visualizer.radioVisualizer antennaLobeLineStyle "\"solid\""
par WirelessC.visualizer.radioVisualizer antennaLobeLineWidth 1
par WirelessC.visualizer.radioVisualizer antennaLobeFillColor "\"white\""
par WirelessC.visualizer.radioVisualizer zIndex 10
par WirelessC.visualizer.physicalLinkVisualizer typename "\"inet.visualizer.canvas.physicallayer.PhysicalLinkCanvasVisualizer\""
par WirelessC.visualizer.physicalLinkVisualizer visualizationTargetModule "\"^.^\""
par WirelessC.visualizer.physicalLinkVisualizer visualizationSubjectModule "\"^.^\""
par WirelessC.visualizer.physicalLinkVisualizer tags "\"\""
par WirelessC.visualizer.physicalLinkVisualizer displayLinks false
par WirelessC.visualizer.physicalLinkVisualizer activityLevel "\"service\""
attr enum service,peer,protocol
par WirelessC.visualizer.physicalLinkVisualizer nodeFilter "\"*\""
attr mutable ""
par WirelessC.visualizer.physicalLinkVisualizer interfaceFilter "\"*\""
attr mutable ""
par WirelessC.visualizer.physicalLinkVisualizer packetFilter "\"*\""
attr mutable ""
par WirelessC.visualizer.physicalLinkVisualizer packetDataFilter "\"*\""
attr mutable ""
par WirelessC.visualizer.physicalLinkVisualizer lineColor "\"olive\""
par WirelessC.visualizer.physicalLinkVisualizer lineStyle "\"dotted\""
par WirelessC.visualizer.physicalLinkVisualizer lineWidth 3
par WirelessC.visualizer.physicalLinkVisualizer lineShift 16
par WirelessC.visualizer.physicalLinkVisualizer lineShiftMode "\"normal\""
par WirelessC.visualizer.physicalLinkVisualizer lineContactSpacing 3
par WirelessC.visualizer.physicalLinkVisualizer lineContactMode "\"rectangular\""
attr enum circular,rectangular
par WirelessC.visualizer.physicalLinkVisualizer labelFormat "\"%n\""
par WirelessC.visualizer.physicalLinkVisualizer labelFont "\"<default>, 8px\""
par WirelessC.visualizer.physicalLinkVisualizer labelColor "\"olive\""
par WirelessC.visualizer.physicalLinkVisualizer fadeOutMode "\"realTime\""
attr enum realTime,animationTime,simulationTime
par WirelessC.visualizer.physicalLinkVisualizer fadeOutTime 1s
attr unit s
par WirelessC.visualizer.physicalLinkVisualizer fadeOutAnimationSpeed 0
par WirelessC.visualizer.physicalLinkVisualizer holdAnimationTime 0s
attr unit s
par WirelessC.visualizer.physicalLinkVisualizer zIndex 1
par WirelessC.visualizer.interfaceTableVisualizer typename "\"inet.visualizer.canvas.linklayer.InterfaceTableCanvasVisualizer\""
par WirelessC.visualizer.interfaceTableVisualizer visualizationTargetModule "\"^.^\""
par WirelessC.visualizer.interfaceTableVisualizer visualizationSubjectModule "\"^.^\""
par WirelessC.visualizer.interfaceTableVisualizer tags "\"\""
par WirelessC.visualizer.interfaceTableVisualizer networkNodeVisualizerModule "\"^.networkNodeVisualizer\""
par WirelessC.visualizer.interfaceTableVisualizer displayInterfaceTables false
par WirelessC.visualizer.interfaceTableVisualizer displayWiredInterfacesAtConnections true
par WirelessC.visualizer.interfaceTableVisualizer displayBackground false
par WirelessC.visualizer.interfaceTableVisualizer nodeFilter "\"*\""
attr mutable ""
par WirelessC.visualizer.interfaceTableVisualizer interfaceFilter "\"not(lo*)\""
attr mutable ""
par WirelessC.visualizer.interfaceTableVisualizer format "\"%N %\\\\%a/%l\""
attr mutable ""
par WirelessC.visualizer.interfaceTableVisualizer placementHint "\"top\""
par WirelessC.visualizer.interfaceTableVisualizer placementPriority 0
par WirelessC.visualizer.interfaceTableVisualizer font "\"<default>\""
par WirelessC.visualizer.interfaceTableVisualizer textColor "\"#005030\""
par WirelessC.visualizer.interfaceTableVisualizer backgroundColor "\"white\""
par WirelessC.visualizer.interfaceTableVisualizer opacity 1
par WirelessC.visualizer.interfaceTableVisualizer zIndex 10
par WirelessC.visualizer.dataLinkVisualizer typename "\"inet.visualizer.canvas.linklayer.DataLinkCanvasVisualizer\""
par WirelessC.visualizer.dataLinkVisualizer visualizationTargetModule "\"^.^\""
par WirelessC.visualizer.dataLinkVisualizer visualizationSubjectModule "\"^.^\""
par WirelessC.visualizer.dataLinkVisualizer tags "\"\""
par WirelessC.visualizer.dataLinkVisualizer displayLinks false
par WirelessC.visualizer.dataLinkVisualizer activityLevel "\"service\""
attr enum service,peer,protocol
par WirelessC.visualizer.dataLinkVisualizer nodeFilter "\"*\""
attr mutable ""
par WirelessC.visualizer.dataLinkVisualizer interfaceFilter "\"*\""
attr mutable ""
par WirelessC.visualizer.dataLinkVisualizer packetFilter "\"*\""
attr mutable ""
par WirelessC.visualizer.dataLinkVisualizer packetDataFilter "\"*\""
attr mutable ""
par WirelessC.visualizer.dataLinkVisualizer lineColor "\"darkcyan\""
par WirelessC.visualizer.dataLinkVisualizer lineStyle "\"solid\""
par WirelessC.visualizer.dataLinkVisualizer lineWidth 3
par WirelessC.visualizer.dataLinkVisualizer lineShift 16
par WirelessC.visualizer.dataLinkVisualizer lineShiftMode "\"normal\""
par WirelessC.visualizer.dataLinkVisualizer lineContactSpacing 3
par WirelessC.visualizer.dataLinkVisualizer lineContactMode "\"rectangular\""
attr enum circular,rectangular
par WirelessC.visualizer.dataLinkVisualizer labelFormat "\"%n\""
par WirelessC.visualizer.dataLinkVisualizer labelFont "\"<default>, 8px\""
par WirelessC.visualizer.dataLinkVisualizer labelColor "\"darkcyan\""
par WirelessC.visualizer.dataLinkVisualizer fadeOutMode "\"realTime\""
attr enum realTime,animationTime,simulationTime
par WirelessC.visualizer.dataLinkVisualizer fadeOutTime 1s
attr unit s
par WirelessC.visualizer.dataLinkVisualizer fadeOutAnimationSpeed 0
par WirelessC.visualizer.dataLinkVisualizer holdAnimationTime 0s
attr unit s
par WirelessC.visualizer.dataLinkVisualizer zIndex 2
par WirelessC.visualizer.linkBreakVisualizer typename "\"inet.visualizer.canvas.linklayer.LinkBreakCanvasVisualizer\""
par WirelessC.visualizer.linkBreakVisualizer visualizationTargetModule "\"^.^\""
par WirelessC.visualizer.linkBreakVisualizer visualizationSubjectModule "\"^.^\""
par WirelessC.visualizer.linkBreakVisualizer tags "\"\""
par WirelessC.visualizer.linkBreakVisualizer displayLinkBreaks false
par WirelessC.visualizer.linkBreakVisualizer nodeFilter "\"*\""
attr mutable ""
par WirelessC.visualizer.linkBreakVisualizer interfaceFilter "\"*\""
attr mutable ""
par WirelessC.visualizer.linkBreakVisualizer packetFilter "\"*\""
attr mutable ""
par WirelessC.visualizer.linkBreakVisualizer packetDataFilter "\"*\""
par WirelessC.visualizer.linkBreakVisualizer icon "\"status/stop\""
par WirelessC.visualizer.linkBreakVisualizer iconTintAmount 0
par WirelessC.visualizer.linkBreakVisualizer iconTintColor "\"\""
par WirelessC.visualizer.linkBreakVisualizer fadeOutMode "\"realTime\""
attr enum realTime,animationTime,simulationTime
par WirelessC.visualizer.linkBreakVisualizer fadeOutTime 1s
attr unit s
par WirelessC.visualizer.linkBreakVisualizer fadeOutAnimationSpeed 0
par WirelessC.visualizer.linkBreakVisualizer zIndex 2
par WirelessC.visualizer.ieee80211Visualizer typename "\"inet.visualizer.canvas.linklayer.Ieee80211CanvasVisualizer\""
par WirelessC.visualizer.ieee80211Visualizer visualizationTargetModule "\"^.^\""
par WirelessC.visualizer.ieee80211Visualizer visualizationSubjectModule "\"^.^\""
par WirelessC.visualizer.ieee80211Visualizer tags "\"\""
par WirelessC.visualizer.ieee80211Visualizer networkNodeVisualizerModule "\"^.networkNodeVisualizer\""
par WirelessC.visualizer.ieee80211Visualizer displayAssociations false
par WirelessC.visualizer.ieee80211Visualizer nodeFilter "\"*\""
attr mutable ""
par WirelessC.visualizer.ieee80211Visualizer interfaceFilter "\"*\""
attr mutable ""
par WirelessC.visualizer.ieee80211Visualizer minPower -85dBm
attr unit dBm
par WirelessC.visualizer.ieee80211Visualizer maxPower -50dBm
attr unit dBm
par WirelessC.visualizer.ieee80211Visualizer icons "\"misc/signal_power_0 misc/signal_power_1 misc/signal_power_2 misc/signal_power_3\""
par WirelessC.visualizer.ieee80211Visualizer iconColor "\"dark\""
attr enum light,dark
par WirelessC.visualizer.ieee80211Visualizer labelFont "\"<default>\""
par WirelessC.visualizer.ieee80211Visualizer labelColor "\"black\""
par WirelessC.visualizer.ieee80211Visualizer placementHint "\"top\""
par WirelessC.visualizer.ieee80211Visualizer placementPriority 0
par WirelessC.visualizer.ieee80211Visualizer zIndex 2
par WirelessC.visualizer.networkRouteVisualizer typename "\"inet.visualizer.canvas.networklayer.NetworkRouteCanvasVisualizer\""
par WirelessC.visualizer.networkRouteVisualizer visualizationTargetModule "\"^.^\""
par WirelessC.visualizer.networkRouteVisualizer visualizationSubjectModule "\"^.^\""
par WirelessC.visualizer.networkRouteVisualizer tags "\"\""
par WirelessC.visualizer.networkRouteVisualizer displayRoutes false
par WirelessC.visualizer.networkRouteVisualizer startPathSignal "\"packetReceivedFromUpper\""
par WirelessC.visualizer.networkRouteVisualizer extendPathSignal "\"packetReceivedFromLower\""
par WirelessC.visualizer.networkRouteVisualizer endPathSignal "\"packetSentToUpper\""
par WirelessC.visualizer.networkRouteVisualizer nodeFilter "\"*\""
attr mutable ""
par WirelessC.visualizer.networkRouteVisualizer packetFilter "\"*\""
attr mutable ""
par WirelessC.visualizer.networkRouteVisualizer packetDataFilter "\"*\""
attr mutable ""
par WirelessC.visualizer.networkRouteVisualizer lineColor "\"dark\""
attr enum light,dark
par WirelessC.visualizer.networkRouteVisualizer lineStyle "\"solid\""
par WirelessC.visualizer.networkRouteVisualizer lineWidth 3
par WirelessC.visualizer.networkRouteVisualizer lineSmooth false
par WirelessC.visualizer.networkRouteVisualizer lineShift 16
par WirelessC.visualizer.networkRouteVisualizer lineShiftMode "\"normal\""
par WirelessC.visualizer.networkRouteVisualizer lineContactSpacing 3
par WirelessC.visualizer.networkRouteVisualizer lineContactMode "\"rectangular\""
attr enum circular,rectangular
par WirelessC.visualizer.networkRouteVisualizer labelFormat "\"%n\""
par WirelessC.visualizer.networkRouteVisualizer labelFont "\"<default>, 8px\""
par WirelessC.visualizer.networkRouteVisualizer labelColor "\"\""
par WirelessC.visualizer.networkRouteVisualizer fadeOutMode "\"realTime\""
attr enum realTime,animationTime,simulationTime
par WirelessC.visualizer.networkRouteVisualizer fadeOutTime 1s
attr unit s
par WirelessC.visualizer.networkRouteVisualizer fadeOutAnimationSpeed 0
par WirelessC.visualizer.networkRouteVisualizer zIndex 3
par WirelessC.visualizer.routingTableVisualizer typename "\"inet.visualizer.canvas.networklayer.RoutingTableCanvasVisualizer\""
par WirelessC.visualizer.routingTableVisualizer visualizationTargetModule "\"^.^\""
par WirelessC.visualizer.routingTableVisualizer visualizationSubjectModule "\"^.^\""
par WirelessC.visualizer.routingTableVisualizer tags "\"\""
par WirelessC.visualizer.routingTableVisualizer displayRoutingTables false
par WirelessC.visualizer.routingTableVisualizer displayRoutesIndividually true
par WirelessC.visualizer.routingTableVisualizer displayLabels true
par WirelessC.visualizer.routingTableVisualizer destinationFilter "\"*\""
attr mutable ""
par WirelessC.visualizer.routingTableVisualizer nodeFilter "\"*\""
attr mutable ""
par WirelessC.visualizer.routingTableVisualizer lineColor "\"black\""
par WirelessC.visualizer.routingTableVisualizer lineStyle "\"solid\""
par WirelessC.visualizer.routingTableVisualizer lineWidth 2
par WirelessC.visualizer.routingTableVisualizer lineShift 16
par WirelessC.visualizer.routingTableVisualizer lineShiftMode "\"normal\""
par WirelessC.visualizer.routingTableVisualizer lineContactSpacing 3
par WirelessC.visualizer.routingTableVisualizer lineContactMode "\"rectangular\""
attr enum circular,rectangular
par WirelessC.visualizer.routingTableVisualizer labelFormat "\"%d/%m -> %g (%n)\""
attr mutable ""
par WirelessC.visualizer.routingTableVisualizer labelFont "\"<default>, 8px\""
par WirelessC.visualizer.routingTableVisualizer labelColor "\"black\""
par WirelessC.visualizer.routingTableVisualizer zIndex 0
par WirelessC.visualizer.transportRouteVisualizer typename "\"inet.visualizer.canvas.transportlayer.TransportRouteCanvasVisualizer\""
par WirelessC.visualizer.transportRouteVisualizer visualizationTargetModule "\"^.^\""
par WirelessC.visualizer.transportRouteVisualizer visualizationSubjectModule "\"^.^\""
par WirelessC.visualizer.transportRouteVisualizer tags "\"\""
par WirelessC.visualizer.transportRouteVisualizer displayRoutes false
par WirelessC.visualizer.transportRouteVisualizer startPathSignal "\"packetReceivedFromUpper\""
par WirelessC.visualizer.transportRouteVisualizer extendPathSignal "\"packetReceivedFromLower\""
par WirelessC.visualizer.transportRouteVisualizer endPathSignal "\"packetSentToUpper\""
par WirelessC.visualizer.transportRouteVisualizer nodeFilter "\"*\""
attr mutable ""
par WirelessC.visualizer.transportRouteVisualizer packetFilter "\"*\""
attr mutable ""
par WirelessC.visualizer.transportRouteVisualizer packetDataFilter "\"*\""
attr mutable ""
par WirelessC.visualizer.transportRouteVisualizer lineColor "\"dark\""
attr enum light,dark
par WirelessC.visualizer.transportRouteVisualizer lineStyle "\"solid\""
par WirelessC.visualizer.transportRouteVisualizer lineWidth 3
par WirelessC.visualizer.transportRouteVisualizer lineSmooth false
par WirelessC.visualizer.transportRouteVisualizer lineShift 16
par WirelessC.visualizer.transportRouteVisualizer lineShiftMode "\"normal\""
par WirelessC.visualizer.transportRouteVisualizer lineContactSpacing 3
par WirelessC.visualizer.transportRouteVisualizer lineContactMode "\"rectangular\""
attr enum circular,rectangular
par WirelessC.visualizer.transportRouteVisualizer labelFormat "\"%n\""
par WirelessC.visualizer.transportRouteVisualizer labelFont "\"<default>, 8px\""
par WirelessC.visualizer.transportRouteVisualizer labelColor "\"\""
par WirelessC.visualizer.transportRouteVisualizer fadeOutMode "\"realTime\""
attr enum realTime,animationTime,simulationTime
par WirelessC.visualizer.transportRouteVisualizer fadeOutTime 1s
attr unit s
par WirelessC.visualizer.transportRouteVisualizer fadeOutAnimationSpeed 0
par WirelessC.visualizer.transportRouteVisualizer zIndex 4
par WirelessC.visualizer.transportConnectionVisualizer typename "\"inet.visualizer.canvas.transportlayer.TransportConnectionCanvasVisualizer\""
par WirelessC.visualizer.transportConnectionVisualizer visualizationTargetModule "\"^.^\""
par WirelessC.visualizer.transportConnectionVisualizer visualizationSubjectModule "\"^.^\""
par WirelessC.visualizer.transportConnectionVisualizer tags "\"\""
par WirelessC.visualizer.transportConnectionVisualizer networkNodeVisualizerModule "\"^.networkNodeVisualizer\""
par WirelessC.visualizer.transportConnectionVisualizer displayTransportConnections false
par WirelessC.visualizer.transportConnectionVisualizer sourceNodeFilter "\"*\""
attr mutable ""
par WirelessC.visualizer.transportConnectionVisualizer sourcePortFilter "\"*\""
attr mutable ""
par WirelessC.visualizer.transportConnectionVisualizer destinationNodeFilter "\"*\""
attr mutable ""
par WirelessC.visualizer.transportConnectionVisualizer destinationPortFilter "\"*\""
attr mutable ""
par WirelessC.visualizer.transportConnectionVisualizer icon "\"misc/marker_s\""
par WirelessC.visualizer.transportConnectionVisualizer iconColor "\"dark\""
attr enum light,dark
par WirelessC.visualizer.transportConnectionVisualizer labelFont "\"<default>\""
par WirelessC.visualizer.transportConnectionVisualizer labelColor "\"black\""
par WirelessC.visualizer.transportConnectionVisualizer placementHint "\"top\""
par WirelessC.visualizer.transportConnectionVisualizer placementPriority 0
par WirelessC.visualizer.transportConnectionVisualizer zIndex 4
par WirelessC.visualizer typename "\"inet.visualizer.canvas.integrated.IntegratedCanvasVisualizer\""
par WirelessC.configurator typename "\"inet.networklayer.configurator.ipv4.Ipv4NetworkConfigurator\""
par WirelessC.configurator minLinkWeight 0.001
par WirelessC.configurator configureIsolatedNetworksSeparatly false
par WirelessC.configurator config "<config>...</config> at content:1"
par WirelessC.configurator assignAddresses true
par WirelessC.configurator assignUniqueAddresses true
par WirelessC.configurator assignDisjunctSubnetAddresses true
par WirelessC.configurator addStaticRoutes true
par WirelessC.configurator addDefaultRoutes true
par WirelessC.configurator addSubnetRoutes true
par WirelessC.configurator addDirectRoutes true
par WirelessC.configurator optimizeRoutes true
par WirelessC.configurator dumpTopology false
par WirelessC.configurator dumpLinks false
par WirelessC.configurator dumpAddresses false
par WirelessC.configurator dumpRoutes false
par WirelessC.configurator dumpConfig "\"\""
par WirelessC.radioMedium.propagation typename "\"inet.physicallayer.wireless.common.propagation.ConstantSpeedPropagation\""
par WirelessC.radioMedium.propagation propagationSpeed 2.99792e+08mps
attr unit mps
par WirelessC.radioMedium.propagation ignoreMovementDuringTransmission true
par WirelessC.radioMedium.propagation ignoreMovementDuringPropagation true
par WirelessC.radioMedium.propagation ignoreMovementDuringReception true
scalar WirelessC.radioMedium.propagation "Arrival computation count" 0
par WirelessC.radioMedium.analogModel typename "\"inet.physicallayer.wireless.unitdisk.UnitDiskAnalogModel\""
par WirelessC.radioMedium.pathLoss typename "\"inet.physicallayer.wireless.common.pathloss.FreeSpacePathLoss\""
par WirelessC.radioMedium.pathLoss alpha 2
par WirelessC.radioMedium.pathLoss systemLoss 0dB
attr unit dB
par WirelessC.radioMedium.mediumLimitCache typename "\"inet.physicallayer.wireless.common.medium.MediumLimitCache\""
par WirelessC.radioMedium.mediumLimitCache centerFrequency "nan Hz"
attr unit Hz
par WirelessC.radioMedium.mediumLimitCache maxSpeed "nan mps"
attr unit mps
par WirelessC.radioMedium.mediumLimitCache maxTransmissionPower "nan W"
attr unit W
par WirelessC.radioMedium.mediumLimitCache minInterferencePower "nan dBm"
attr unit dBm
par WirelessC.radioMedium.mediumLimitCache minReceptionPower "nan dBm"
attr unit dBm
par WirelessC.radioMedium.mediumLimitCache maxAntennaGain 0dB
attr unit dB
par WirelessC.radioMedium.mediumLimitCache minInterferenceTime 1e-12s
attr unit s
par WirelessC.radioMedium.mediumLimitCache maxTransmissionDuration 0.01s
attr unit s
par WirelessC.radioMedium.mediumLimitCache maxCommunicationRange "nan m"
attr unit m
par WirelessC.radioMedium.mediumLimitCache maxInterferenceRange "nan m"
attr unit m
par WirelessC.radioMedium.communicationCache typename "\"inet.physicallayer.wireless.common.communicationcache.VectorCommunicationCache\""
par WirelessC.radioMedium typename "\"inet.physicallayer.wireless.unitdisk.UnitDiskRadioMedium\""
par WirelessC.radioMedium physicalEnvironmentModule "\"physicalEnvironment\""
par WirelessC.radioMedium signalAnalogRepresentation "\"unitDisk\""
attr enum unitDisk,scalar,dimensional
par WirelessC.radioMedium rangeFilter "\"\""
par WirelessC.radioMedium radioModeFilter false
par WirelessC.radioMedium listeningFilter false
par WirelessC.radioMedium macAddressFilter false
par WirelessC.radioMedium recordTransmissionLog false
par WirelessC.radioMedium recordReceptionLog false
scalar WirelessC.radioMedium "transmission count" 0
scalar WirelessC.radioMedium "signal send count" 0
scalar WirelessC.radioMedium "reception computation count" 0
scalar WirelessC.radioMedium "interference computation count" 101
scalar WirelessC.radioMedium "reception decision computation count" 0
scalar WirelessC.radioMedium "listening decision computation count" 101
scalar WirelessC.radioMedium "reception cache hit" nan
attr unit %
scalar WirelessC.radioMedium "interference cache hit" nan
attr unit %
scalar WirelessC.radioMedium "noise cache hit" nan
attr unit %
scalar WirelessC.radioMedium "snir cache hit" nan
attr unit %
scalar WirelessC.radioMedium "reception decision cache hit" nan
attr unit %
scalar WirelessC.radioMedium "reception result cache hit" nan
attr unit %
par WirelessC.scenarioManager typename "\"inet.common.scenario.ScenarioManager\""
par WirelessC.scenarioManager script "<scenario>...</scenario> at C:/Users/vuduc/OneDrive/Documents/GitHub/how-did-i-prepare-for-my-graduation-thesis/03.INET Framework/source/INETProject/Project1/\\scenarioB.xml:2"
par WirelessC.mobileHost.radioIn[0].channel typename "\"ned.IdealChannel\""
par WirelessC.mobileHost.mobility typename "\"inet.mobility.single.TurtleMobility\""
par WirelessC.mobileHost.mobility subjectModule "\"^\""
par WirelessC.mobileHost.mobility coordinateSystemModule "\"\""
par WirelessC.mobileHost.mobility displayStringTextFormat "\"p: %p\\nv: %v\""
attr mutable ""
par WirelessC.mobileHost.mobility updateDisplayString true
par WirelessC.mobileHost.mobility constraintAreaMinX "-inf m"
attr unit m
par WirelessC.mobileHost.mobility constraintAreaMinY "-inf m"
attr unit m
par WirelessC.mobileHost.mobility constraintAreaMinZ "-inf m"
attr unit m
par WirelessC.mobileHost.mobility constraintAreaMaxX "inf m"
attr unit m
par WirelessC.mobileHost.mobility constraintAreaMaxY "inf m"
attr unit m
par WirelessC.mobileHost.mobility constraintAreaMaxZ "inf m"
attr unit m
par WirelessC.mobileHost.mobility updateInterval 0.1s
attr unit s
par WirelessC.mobileHost.mobility faceForward true
par WirelessC.mobileHost.mobility turtleScript "<movement id=\"2\">...</movement> at C:/Users/vuduc/OneDrive/Documents/GitHub/how-did-i-prepare-for-my-graduation-thesis/03.INET Framework/source/INETProject/Project1/\\movements.xml:22"
par WirelessC.mobileHost.interfaceTable typename "\"inet.networklayer.common.InterfaceTable\""
par WirelessC.mobileHost.interfaceTable displayAddresses false
par WirelessC.mobileHost.li typename "\"inet.common.MessageDispatcher\""
par WirelessC.mobileHost.li displayStringTextFormat "\"processed %p pk (%l)\""
par WirelessC.mobileHost.lo[0].upperLayerIn.channel typename "\"ned.IdealChannel\""
par WirelessC.mobileHost.lo[0].lo.upperLayerOut.channel typename "\"ned.IdealChannel\""
par WirelessC.mobileHost.lo[0].lo typename "\"inet.linklayer.loopback.Loopback\""
par WirelessC.mobileHost.lo[0].lo interfaceTableModule "\"WirelessC.mobileHost.interfaceTable\""
par WirelessC.mobileHost.lo[0].lo mtu 4470B
attr unit B
scalar WirelessC.mobileHost.lo[0].lo rcvdPkFromHl:count 0
attr interpolationmode none
attr recordingmode count
attr source packetReceivedFromUpper
attr title "packets received from higher layer, count"
scalar WirelessC.mobileHost.lo[0].lo rcvdPkFromHl:sum(packetBytes) 0
attr interpolationmode none
attr recordingmode sum(packetBytes)
attr source packetReceivedFromUpper
attr title "packets received from higher layer, sum(packetBytes)"
scalar WirelessC.mobileHost.lo[0].lo passedUpPk:count 0
attr interpolationmode none
attr recordingmode count
attr source packetSentToUpper
attr title "packets passed to higher layer, count"
scalar WirelessC.mobileHost.lo[0].lo passedUpPk:sum(packetBytes) 0
attr interpolationmode none
attr recordingmode sum(packetBytes)
attr source packetSentToUpper
attr title "packets passed to higher layer, sum(packetBytes)"
par WirelessC.mobileHost.lo[0] typename "\"inet.linklayer.loopback.LoopbackInterface\""
par WirelessC.mobileHost.lo[0] displayStringTextFormat "\"%a (%i)\\n%m\""
par WirelessC.mobileHost.lo[0] recordPcap false
par WirelessC.mobileHost.lo[0] numPcapRecorders 0
par WirelessC.mobileHost.lo[0] interfaceTableModule "\"WirelessC.mobileHost.interfaceTable\""
par WirelessC.mobileHost.wlan[0].upperLayerIn.channel typename "\"ned.IdealChannel\""
par WirelessC.mobileHost.wlan[0].radioIn.channel typename "\"ned.IdealChannel\""
par WirelessC.mobileHost.wlan[0].mac.upperLayerOut.channel typename "\"ned.IdealChannel\""
par WirelessC.mobileHost.wlan[0].mac.queue typename "\"inet.queueing.queue.DropTailQueue\""
par WirelessC.mobileHost.wlan[0].mac.queue displayStringTextFormat "\"contains %p pk (%l) pushed %u\\npulled %o removed %r dropped %d\""
par WirelessC.mobileHost.wlan[0].mac.queue packetCapacity 100
par WirelessC.mobileHost.wlan[0].mac.queue dataCapacity -1b
attr unit b
par WirelessC.mobileHost.wlan[0].mac.queue dropperClass "\"inet::queueing::PacketAtCollectionEndDropper\""
par WirelessC.mobileHost.wlan[0].mac.queue comparatorClass "\"\""
par WirelessC.mobileHost.wlan[0].mac.queue bufferModule "\"\""
scalar WirelessC.mobileHost.wlan[0].mac.queue packetPulled:count 0
attr interpolationmode none
attr recordingmode count
attr title "packet pulled, count"
scalar WirelessC.mobileHost.wlan[0].mac.queue packetPulled:sum(packetBytes) 0
attr interpolationmode none
attr recordingmode sum(packetBytes)
attr title "packet pulled, sum(packetBytes)"
statistic WirelessC.mobileHost.wlan[0].mac.queue queueingTime:histogram
field count 0
field mean nan
field stddev nan
field min nan
field max nan
field sum 0
field sqrsum 0
attr interpolationmode none
attr recordingmode histogram
attr source queueingTime(packetPulled)
attr title "queueing times"
attr unit s
bin	-inf	0
bin	0	0
bin	1	0
scalar WirelessC.mobileHost.wlan[0].mac.queue queueLength:max 0
attr autoWarmupFilter false
attr interpolationmode sample-hold
attr recordingmode max
attr source "warmup(count(packetPushed) - count(packetPulled) - count(packetRemoved) - count(packetDropped))"
attr title "queue length, max"
attr type int
scalar WirelessC.mobileHost.wlan[0].mac.queue queueLength:timeavg 0
attr autoWarmupFilter false
attr interpolationmode sample-hold
attr recordingmode timeavg
attr source "warmup(count(packetPushed) - count(packetPulled) - count(packetRemoved) - count(packetDropped))"
attr title "queue length, timeavg"
attr type int
scalar WirelessC.mobileHost.wlan[0].mac.queue packetPushed:count 0
attr interpolationmode none
attr recordingmode count
attr title "packet pushed, count"
scalar WirelessC.mobileHost.wlan[0].mac.queue packetPushed:sum(packetBytes) 0
attr interpolationmode none
attr recordingmode sum(packetBytes)
attr title "packet pushed, sum(packetBytes)"
scalar WirelessC.mobileHost.wlan[0].mac.queue packetDropQueueOverflow:count 0
attr interpolationmode none
attr recordingmode count
attr source packetDropReasonIsQueueOverflow(packetDropped)
attr title "packet drops: queue overflow, count"
scalar WirelessC.mobileHost.wlan[0].mac.queue packetDropQueueOverflow:sum(packetBytes) 0
attr interpolationmode none
attr recordingmode sum(packetBytes)
attr source packetDropReasonIsQueueOverflow(packetDropped)
attr title "packet drops: queue overflow, sum(packetBytes)"
scalar WirelessC.mobileHost.wlan[0].mac.queue packetRemoved:count 0
attr interpolationmode none
attr recordingmode count
attr title "packets removed, count"
scalar WirelessC.mobileHost.wlan[0].mac.queue packetRemoved:sum(packetBytes) 0
attr interpolationmode none
attr recordingmode sum(packetBytes)
attr title "packets removed, sum(packetBytes)"
par WirelessC.mobileHost.wlan[0].mac typename "\"inet.linklayer.acking.AckingMac\""
par WirelessC.mobileHost.wlan[0].mac interfaceTableModule "\"WirelessC.mobileHost.interfaceTable\""
par WirelessC.mobileHost.wlan[0].mac address "\"auto\""
attr mutable ""
par WirelessC.mobileHost.wlan[0].mac bitrate 1e+06bps
attr unit bps
par WirelessC.mobileHost.wlan[0].mac mtu 4470B
attr unit B
par WirelessC.mobileHost.wlan[0].mac headerLength 23B
attr unit B
par WirelessC.mobileHost.wlan[0].mac promiscuous false
par WirelessC.mobileHost.wlan[0].mac fullDuplex false
par WirelessC.mobileHost.wlan[0].mac useAck false
par WirelessC.mobileHost.wlan[0].mac ackTimeout 0.1s
attr unit s
scalar WirelessC.mobileHost.wlan[0].mac rcvdPkFromLl:count 0
attr interpolationmode none
attr recordingmode count
attr source packetReceivedFromLower
attr title "packets received from lower layer, count"
scalar WirelessC.mobileHost.wlan[0].mac rcvdPkFromLl:sum(packetBytes) 0
attr interpolationmode none
attr recordingmode sum(packetBytes)
attr source packetReceivedFromLower
attr title "packets received from lower layer, sum(packetBytes)"
scalar WirelessC.mobileHost.wlan[0].mac sentDownPk:count 0
attr interpolationmode none
attr recordingmode count
attr source packetSentToLower
attr title "packets sent to lower layer, count"
scalar WirelessC.mobileHost.wlan[0].mac sentDownPk:sum(packetBytes) 0
attr interpolationmode none
attr recordingmode sum(packetBytes)
attr source packetSentToLower
attr title "packets sent to lower layer, sum(packetBytes)"
scalar WirelessC.mobileHost.wlan[0].mac rcvdPkFromHl:count 0
attr interpolationmode none
attr recordingmode count
attr source packetReceivedFromUpper
attr title "packets received from higher layer, count"
scalar WirelessC.mobileHost.wlan[0].mac rcvdPkFromHl:sum(packetBytes) 0
attr interpolationmode none
attr recordingmode sum(packetBytes)
attr source packetReceivedFromUpper
attr title "packets received from higher layer, sum(packetBytes)"
scalar WirelessC.mobileHost.wlan[0].mac passedUpPk:count 0
attr interpolationmode none
attr recordingmode count
attr source packetSentToUpper
attr title "packets passed to higher layer, count"
scalar WirelessC.mobileHost.wlan[0].mac passedUpPk:sum(packetBytes) 0
attr interpolationmode none
attr recordingmode sum(packetBytes)
attr source packetSentToUpper
attr title "packets passed to higher layer, sum(packetBytes)"
scalar WirelessC.mobileHost.wlan[0].mac packetDropIncorrectlyReceived:count 0
attr interpolationmode none
attr recordingmode count
attr source packetDropReasonIsIncorrectlyReceived(packetDropped)
attr title "packet drop: incorrectly received, count"
scalar WirelessC.mobileHost.wlan[0].mac packetDropIncorrectlyReceived:sum(packetBytes) 0
attr interpolationmode none
attr recordingmode sum(packetBytes)
attr source packetDropReasonIsIncorrectlyReceived(packetDropped)
attr title "packet drop: incorrectly received, sum(packetBytes)"
scalar WirelessC.mobileHost.wlan[0].mac packetDropInterfaceDown:count 0
attr interpolationmode none
attr recordingmode count
attr source packetDropReasonIsInterfaceDown(packetDropped)
attr title "packet drop: interface down, count"
scalar WirelessC.mobileHost.wlan[0].mac packetDropInterfaceDown:sum(packetBytes) 0
attr interpolationmode none
attr recordingmode sum(packetBytes)
attr source packetDropReasonIsInterfaceDown(packetDropped)
attr title "packet drop: interface down, sum(packetBytes)"
scalar WirelessC.mobileHost.wlan[0].mac packetDropNotAddressedToUs:count 0
attr interpolationmode none
attr recordingmode count
attr source packetDropReasonIsNotAddressedToUs(packetDropped)
attr title "packet drop: not addressed to us, count"
scalar WirelessC.mobileHost.wlan[0].mac packetDropNotAddressedToUs:sum(packetBytes) 0
attr interpolationmode none
attr recordingmode sum(packetBytes)
attr source packetDropReasonIsNotAddressedToUs(packetDropped)
attr title "packet drop: not addressed to us, sum(packetBytes)"
scalar WirelessC.mobileHost.wlan[0].mac linkBroken:count 0
attr interpolationmode none
attr recordingmode count
attr source linkBroken
attr title "link break, count"
par WirelessC.mobileHost.wlan[0].radio.antenna typename "\"inet.physicallayer.wireless.common.antenna.IsotropicAntenna\""
par WirelessC.mobileHost.wlan[0].radio.antenna mobilityModule "\"^.^.^.mobility\""
par WirelessC.mobileHost.wlan[0].radio.antenna numAntennas 1
par WirelessC.mobileHost.wlan[0].radio.transmitter typename "\"inet.physicallayer.wireless.unitdisk.UnitDiskTransmitter\""
par WirelessC.mobileHost.wlan[0].radio.transmitter preambleDuration 0s
attr unit s
par WirelessC.mobileHost.wlan[0].radio.transmitter headerLength 96b
attr unit b
par WirelessC.mobileHost.wlan[0].radio.transmitter bitrate 1e+06bps
attr unit bps
par WirelessC.mobileHost.wlan[0].radio.transmitter communicationRange 50m
attr unit m
par WirelessC.mobileHost.wlan[0].radio.transmitter interferenceRange 50m
attr unit m
par WirelessC.mobileHost.wlan[0].radio.transmitter detectionRange 50m
attr unit m
par WirelessC.mobileHost.wlan[0].radio.receiver typename "\"inet.physicallayer.wireless.unitdisk.UnitDiskReceiver\""
par WirelessC.mobileHost.wlan[0].radio.receiver ignoreInterference true
par WirelessC.mobileHost.wlan[0].radio typename "\"inet.physicallayer.wireless.unitdisk.UnitDiskRadio\""
par WirelessC.mobileHost.wlan[0].radio radioMediumModule "\"radioMedium\""
par WirelessC.mobileHost.wlan[0].radio energySourceModule "\"\""
par WirelessC.mobileHost.wlan[0].radio initialRadioMode "\"off\""
attr enum off,sleep,receiver,transmitter,transceiver
par WirelessC.mobileHost.wlan[0].radio switchingTimes "\"ms 0 0 0 0 0 0 0 0 0 0 0 0 0 0 0 0 0 0 0 0 0 0 0 0 0\""
par WirelessC.mobileHost.wlan[0].radio sendRawBytes false
par WirelessC.mobileHost.wlan[0].radio separateTransmissionParts false
par WirelessC.mobileHost.wlan[0].radio separateReceptionParts false
par WirelessC.mobileHost.wlan[0].radio displayCommunicationRange true
par WirelessC.mobileHost.wlan[0].radio displayInterferenceRange false
statistic WirelessC.mobileHost.wlan[0].radio minSnir:histogram
field count 0
field mean nan
field stddev nan
field min nan
field max nan
field sum 0
field sqrsum 0
attr recordingmode histogram
attr source minimumSnir(packetSentToUpper)
attr title "Min SNIR"
bin	-inf	0
bin	0	0
bin	1	0
statistic WirelessC.mobileHost.wlan[0].radio packetErrorRate:histogram
field count 0
field mean nan
field stddev nan
field min nan
field max nan
field sum 0
field sqrsum 0
attr recordingmode histogram
attr source packetErrorRate(packetSentToUpper)
attr title "Packet error rate"
bin	-inf	0
bin	0	0
bin	1	0
statistic WirelessC.mobileHost.wlan[0].radio bitErrorRate:histogram
field count 0
field mean nan
field stddev nan
field min nan
field max nan
field sum 0
field sqrsum 0
attr recordingmode histogram
attr source bitErrorRate(packetSentToUpper)
attr title "Bit error rate"
bin	-inf	0
bin	0	0
bin	1	0
statistic WirelessC.mobileHost.wlan[0].radio symbolErrorRate:histogram
field count 0
field mean nan
field stddev nan
field min nan
field max nan
field sum 0
field sqrsum 0
attr recordingmode histogram
attr source symbolErrorRate(packetSentToUpper)
attr title "Symbol error rate"
bin	-inf	0
bin	0	0
bin	1	0
scalar WirelessC.mobileHost.wlan[0].radio transmissionState:count 0
attr interpolationmode sample-hold
attr recordingmode count
attr source transmissionStateChanged
attr title "Radio transmission state, count"
scalar WirelessC.mobileHost.wlan[0].radio receptionState:count 1
attr interpolationmode sample-hold
attr recordingmode count
attr source receptionStateChanged
attr title "Radio reception state, count"
scalar WirelessC.mobileHost.wlan[0].radio radioMode:count 3
attr interpolationmode sample-hold
attr recordingmode count
attr source radioModeChanged
attr title "Radio mode, count"
par WirelessC.mobileHost.wlan[0] typename "\"inet.linklayer.acking.AckingWirelessInterface\""
par WirelessC.mobileHost.wlan[0] displayStringTextFormat "\"%a (%i)\\n%m\""
par WirelessC.mobileHost.wlan[0] recordPcap false
par WirelessC.mobileHost.wlan[0] numPcapRecorders 0
par WirelessC.mobileHost.wlan[0] interfaceTableModule "\"WirelessC.mobileHost.interfaceTable\""
par WirelessC.mobileHost.wlan[0] energySourceModule "\"\""
par WirelessC.mobileHost.wlan[0] bitrate 1e+06bps
attr unit bps
par WirelessC.mobileHost.ipv4.transportIn.channel typename "\"ned.IdealChannel\""
par WirelessC.mobileHost.ipv4.up.out[0].channel typename "\"ned.IdealChannel\""
par WirelessC.mobileHost.ipv4.lp.out[2].channel typename "\"ned.IdealChannel\""
par WirelessC.mobileHost.ipv4.ifIn.channel typename "\"ned.IdealChannel\""
par WirelessC.mobileHost.ipv4.configurator typename "\"inet.networklayer.configurator.ipv4.Ipv4NodeConfigurator\""
par WirelessC.mobileHost.ipv4.configurator interfaceTableModule "\"WirelessC.mobileHost.interfaceTable\""
par WirelessC.mobileHost.ipv4.configurator routingTableModule "\"WirelessC.mobileHost.ipv4.routingTable\""
par WirelessC.mobileHost.ipv4.configurator networkConfiguratorModule "\"configurator\""
par WirelessC.mobileHost.ipv4.configurator configureRoutingTable true
par WirelessC.mobileHost.ipv4.routingTable typename "\"inet.networklayer.ipv4.Ipv4RoutingTable\""
par WirelessC.mobileHost.ipv4.routingTable interfaceTableModule "\"WirelessC.mobileHost.interfaceTable\""
par WirelessC.mobileHost.ipv4.routingTable routerId "\"auto\""
par WirelessC.mobileHost.ipv4.routingTable netmaskRoutes "\"*\""
par WirelessC.mobileHost.ipv4.routingTable forwarding false
par WirelessC.mobileHost.ipv4.routingTable multicastForwarding false
par WirelessC.mobileHost.ipv4.routingTable useAdminDist false
par WirelessC.mobileHost.ipv4.routingTable routingFile "\"\""
par WirelessC.mobileHost.ipv4.natTable typename "\"inet.networklayer.ipv4.Ipv4NatTable\""
par WirelessC.mobileHost.ipv4.natTable networkProtocolModule "\"^.ip\""
par WirelessC.mobileHost.ipv4.natTable config "<config/> at content:1"
par WirelessC.mobileHost.ipv4.up typename "\"inet.common.MessageDispatcher\""
par WirelessC.mobileHost.ipv4.up displayStringTextFormat "\"processed %p pk (%l)\""
par WirelessC.mobileHost.ipv4.igmp typename "\"inet.networklayer.ipv4.Igmpv2\""
par WirelessC.mobileHost.ipv4.igmp interfaceTableModule "\"WirelessC.mobileHost.interfaceTable\""
par WirelessC.mobileHost.ipv4.igmp routingTableModule "\"WirelessC.mobileHost.ipv4.routingTable\""
par WirelessC.mobileHost.ipv4.igmp crcMode "\"declared\""
attr enum declared,computed
par WirelessC.mobileHost.ipv4.igmp enabled true
par WirelessC.mobileHost.ipv4.igmp robustnessVariable 2
par WirelessC.mobileHost.ipv4.igmp queryInterval 125s
attr unit s
par WirelessC.mobileHost.ipv4.igmp queryResponseInterval 10s
attr unit s
par WirelessC.mobileHost.ipv4.igmp groupMembershipInterval 260s
attr unit s
par WirelessC.mobileHost.ipv4.igmp otherQuerierPresentInterval 255s
attr unit s
par WirelessC.mobileHost.ipv4.igmp startupQueryInterval 31.25s
attr unit s
par WirelessC.mobileHost.ipv4.igmp startupQueryCount 2
par WirelessC.mobileHost.ipv4.igmp lastMemberQueryInterval 1s
attr unit s
par WirelessC.mobileHost.ipv4.igmp lastMemberQueryCount 2
par WirelessC.mobileHost.ipv4.igmp unsolicitedReportInterval 10s
attr unit s
par WirelessC.mobileHost.ipv4.icmp typename "\"inet.networklayer.ipv4.Icmp\""
par WirelessC.mobileHost.ipv4.icmp interfaceTableModule "\"WirelessC.mobileHost.interfaceTable\""
par WirelessC.mobileHost.ipv4.icmp routingTableModule "\"WirelessC.mobileHost.ipv4.routingTable\""
par WirelessC.mobileHost.ipv4.icmp crcMode "\"declared\""
attr enum declared,computed
attr mutable ""
par WirelessC.mobileHost.ipv4.icmp quoteLength 8B
attr mutable ""
attr unit B
par WirelessC.mobileHost.ipv4.mp typename "\"inet.common.MessageDispatcher\""
par WirelessC.mobileHost.ipv4.mp displayStringTextFormat "\"processed %p pk (%l)\""
par WirelessC.mobileHost.ipv4.ip typename "\"inet.networklayer.ipv4.Ipv4\""
par WirelessC.mobileHost.ipv4.ip interfaceTableModule "\"WirelessC.mobileHost.interfaceTable\""
par WirelessC.mobileHost.ipv4.ip routingTableModule "\"WirelessC.mobileHost.ipv4.routingTable\""
par WirelessC.mobileHost.ipv4.ip arpModule "\"WirelessC.mobileHost.ipv4.arp\""
par WirelessC.mobileHost.ipv4.ip icmpModule "\"WirelessC.mobileHost.ipv4.icmp\""
par WirelessC.mobileHost.ipv4.ip crcMode "\"declared\""
attr enum declared,computed
par WirelessC.mobileHost.ipv4.ip timeToLive 32
par WirelessC.mobileHost.ipv4.ip multicastTimeToLive 32
par WirelessC.mobileHost.ipv4.ip fragmentTimeout 60s
attr unit s
par WirelessC.mobileHost.ipv4.ip limitedBroadcast false
par WirelessC.mobileHost.ipv4.ip directBroadcastInterfaces "\"\""
scalar WirelessC.mobileHost.ipv4.ip packetDropAddressResolutionFailed:count 0
attr interpolationmode none
attr recordingmode count
attr source packetDropReasonIsAddressResolutionFailed(packetDropped)
attr title "packet drop: address resolution failed, count"
scalar WirelessC.mobileHost.ipv4.ip packetDropAddressResolutionFailed:sum(packetBytes) 0
attr interpolationmode none
attr recordingmode sum(packetBytes)
attr source packetDropReasonIsAddressResolutionFailed(packetDropped)
attr title "packet drop: address resolution failed, sum(packetBytes)"
scalar WirelessC.mobileHost.ipv4.ip packetDropHopLimitReached:count 0
attr interpolationmode none
attr recordingmode count
attr source packetDropReasonIsHopLimitReached(packetDropped)
attr title "packet drop: hop limit reached, count"
scalar WirelessC.mobileHost.ipv4.ip packetDropHopLimitReached:sum(packetBytes) 0
attr interpolationmode none
attr recordingmode sum(packetBytes)
attr source packetDropReasonIsHopLimitReached(packetDropped)
attr title "packet drop: hop limit reached, sum(packetBytes)"
scalar WirelessC.mobileHost.ipv4.ip packetDropForwardingDisabled:count 0
attr interpolationmode none
attr recordingmode count
attr source packetDropReasonIsForwardingDisabled(packetDropped)
attr title "packet drop: forwarding disabled, count"
scalar WirelessC.mobileHost.ipv4.ip packetDropForwardingDisabled:sum(packetBytes) 0
attr interpolationmode none
attr recordingmode sum(packetBytes)
attr source packetDropReasonIsForwardingDisabled(packetDropped)
attr title "packet drop: forwarding disabled, sum(packetBytes)"
scalar WirelessC.mobileHost.ipv4.ip packetDropNoInterfaceFound:count 0
attr interpolationmode none
attr recordingmode count
attr source packetDropReasonIsNoInterfaceFound(packetDropped)
attr title "packet drop: no interface found, count"
scalar WirelessC.mobileHost.ipv4.ip packetDropNoInterfaceFound:sum(packetBytes) 0
attr interpolationmode none
attr recordingmode sum(packetBytes)
attr source packetDropReasonIsNoInterfaceFound(packetDropped)
attr title "packet drop: no interface found, sum(packetBytes)"
scalar WirelessC.mobileHost.ipv4.ip packetDropNoRouteFound:count 0
attr interpolationmode none
attr recordingmode count
attr source packetDropReasonIsNoRouteFound(packetDropped)
attr title "packet drop: no route found, count"
scalar WirelessC.mobileHost.ipv4.ip packetDropNoRouteFound:sum(packetBytes) 0
attr interpolationmode none
attr recordingmode sum(packetBytes)
attr source packetDropReasonIsNoRouteFound(packetDropped)
attr title "packet drop: no route found, sum(packetBytes)"
scalar WirelessC.mobileHost.ipv4.ip packetDropUndefined:count 0
attr interpolationmode none
attr recordingmode count
attr source packetDropReasonIsUndefined(packetDropped)
attr title "packet drop: undefined, count"
scalar WirelessC.mobileHost.ipv4.ip packetDropUndefined:sum(packetBytes) 0
attr interpolationmode none
attr recordingmode sum(packetBytes)
attr source packetDropReasonIsUndefined(packetDropped)
attr title "packet drop: undefined, sum(packetBytes)"
par WirelessC.mobileHost.ipv4.arp typename "\"inet.networklayer.arp.ipv4.Arp\""
par WirelessC.mobileHost.ipv4.arp interfaceTableModule "\"WirelessC.mobileHost.interfaceTable\""
par WirelessC.mobileHost.ipv4.arp routingTableModule "\"WirelessC.mobileHost.ipv4.routingTable\""
par WirelessC.mobileHost.ipv4.arp retryTimeout 1s
attr unit s
par WirelessC.mobileHost.ipv4.arp retryCount 3
par WirelessC.mobileHost.ipv4.arp cacheTimeout 120s
attr unit s
par WirelessC.mobileHost.ipv4.arp proxyArpInterfaces "\"\""
scalar WirelessC.mobileHost.ipv4.arp arpReplySent:count 0
attr recordingmode count
attr source arpReplySent
attr title "ARP replies sent, count"
scalar WirelessC.mobileHost.ipv4.arp arpReplySent:sum(packetBytes) 0
attr recordingmode sum(packetBytes)
attr source arpReplySent
attr title "ARP replies sent, sum(packetBytes)"
scalar WirelessC.mobileHost.ipv4.arp arpRequestSent:count 0
attr recordingmode count
attr source arpRequestSent
attr title "ARP request sent, count"
scalar WirelessC.mobileHost.ipv4.arp arpRequestSent:sum(packetBytes) 0
attr recordingmode sum(packetBytes)
attr source arpRequestSent
attr title "ARP request sent, sum(packetBytes)"
scalar WirelessC.mobileHost.ipv4.arp arpResolutionFailed:count 0
attr recordingmode count
attr title "ARP failed resolutions, count"
scalar WirelessC.mobileHost.ipv4.arp arpResolutionCompleted:count 0
attr recordingmode count
attr title "ARP completed resolutions, count"
scalar WirelessC.mobileHost.ipv4.arp arpResolutionInitiated:count 0
attr recordingmode count
attr title "ARP initiated resolutions, count"
par WirelessC.mobileHost.ipv4.lp typename "\"inet.common.MessageDispatcher\""
par WirelessC.mobileHost.ipv4.lp displayStringTextFormat "\"processed %p pk (%l)\""
par WirelessC.mobileHost.ipv4 typename "\"inet.networklayer.ipv4.Ipv4NetworkLayer\""
par WirelessC.mobileHost.ipv4 forwarding false
par WirelessC.mobileHost.ipv4 multicastForwarding false
par WirelessC.mobileHost.ipv4 interfaceTableModule "\"WirelessC.mobileHost.interfaceTable\""
par WirelessC.mobileHost.ipv4 displayStringTextFormat "\"%i\""
par WirelessC.mobileHost.nl typename "\"inet.common.MessageDispatcher\""
par WirelessC.mobileHost.nl displayStringTextFormat "\"processed %p pk (%l)\""
par WirelessC.mobileHost.udp typename "\"inet.transportlayer.udp.Udp\""
par WirelessC.mobileHost.udp interfaceTableModule "\"WirelessC.mobileHost.interfaceTable\""
par WirelessC.mobileHost.udp icmpModule "\"^.ipv4.icmp\""
par WirelessC.mobileHost.udp icmpv6Module "\"^.ipv6.icmpv6\""
par WirelessC.mobileHost.udp crcMode "\"declared\""
attr enum disabled,declared,computed
scalar WirelessC.mobileHost.udp packetReceived:count 0
attr interpolationmode none
attr recordingmode count
attr source packetReceived
attr title "packets received, count"
scalar WirelessC.mobileHost.udp packetReceived:sum(packetBytes) 0
attr interpolationmode none
attr recordingmode sum(packetBytes)
attr source packetReceived
attr title "packets received, sum(packetBytes)"
scalar WirelessC.mobileHost.udp packetSent:count 0
attr interpolationmode none
attr recordingmode count
attr source packetSent
attr title "packets sent, count"
scalar WirelessC.mobileHost.udp packetSent:sum(packetBytes) 0
attr interpolationmode none
attr recordingmode sum(packetBytes)
attr source packetSent
attr title "packets sent, sum(packetBytes)"
scalar WirelessC.mobileHost.udp passedUpPk:count 0
attr interpolationmode none
attr recordingmode count
attr source packetSentToUpper
attr title "packets passed up, count"
scalar WirelessC.mobileHost.udp droppedPkWrongPort:count 0
attr interpolationmode none
attr recordingmode count
attr source packetDropReasonIsNoPortFound(packetDropped)
attr title "packets dropped (wrong port), count"
scalar WirelessC.mobileHost.udp droppedPkBadChecksum:count 0
attr interpolationmode none
attr recordingmode count
attr source packetDropReasonIsIncorrectlyReceived(packetDropped)
attr title "packets dropped (checksum error), count"
par WirelessC.mobileHost.tcp typename "\"inet.transportlayer.tcp.Tcp\""
par WirelessC.mobileHost.tcp crcMode "\"declared\""
attr enum declared,computed
par WirelessC.mobileHost.tcp advertisedWindow 7504
par WirelessC.mobileHost.tcp delayedAcksEnabled false
par WirelessC.mobileHost.tcp nagleEnabled true
par WirelessC.mobileHost.tcp limitedTransmitEnabled false
par WirelessC.mobileHost.tcp increasedIWEnabled false
par WirelessC.mobileHost.tcp sackSupport false
par WirelessC.mobileHost.tcp windowScalingSupport false
par WirelessC.mobileHost.tcp windowScalingFactor -1
par WirelessC.mobileHost.tcp timestampSupport false
par WirelessC.mobileHost.tcp mss 536
par WirelessC.mobileHost.tcp msl 120s
attr unit s
par WirelessC.mobileHost.tcp tcpAlgorithmClass "\"TcpReno\""
attr enum TcpVegas,TcpWestwood,TcpNewReno,TcpReno,TcpTahoe,TcpNoCongestionControl
par WirelessC.mobileHost.tcp useDataNotification false
par WirelessC.mobileHost.tcp dupthresh 3
par WirelessC.mobileHost.tcp initialSsthresh 4294967295
par WirelessC.mobileHost.tcp stopOperationExtraTime 0s
attr unit s
par WirelessC.mobileHost.tcp stopOperationTimeout 2s
attr unit s
par WirelessC.mobileHost.tcp ecnWillingness false
par WirelessC.mobileHost.tcp dctcpGamma 0.0625
par WirelessC.mobileHost.tn typename "\"inet.common.MessageDispatcher\""
par WirelessC.mobileHost.tn displayStringTextFormat "\"processed %p pk (%l)\""
par WirelessC.mobileHost.app[0] typename "\"inet.applications.udpapp.DataCollectorApp\""
par WirelessC.mobileHost.app[0] interfaceTableModule "\"WirelessC.mobileHost.interfaceTable\""
par WirelessC.mobileHost.app[0] clockModule "\"\""
par WirelessC.mobileHost.app[0] localPort 5001
par WirelessC.mobileHost.app[0] destAddresses "\"host*\""
par WirelessC.mobileHost.app[0] localAddress "\"\""
par WirelessC.mobileHost.app[0] destPort 5000
par WirelessC.mobileHost.app[0] packetName "\"UDPData\""
par WirelessC.mobileHost.app[0] messageLength 1000B
attr unit B
par WirelessC.mobileHost.app[0] startTime 238.762s
attr unit s
par WirelessC.mobileHost.app[0] stopTime -1s
attr unit s
par WirelessC.mobileHost.app[0] sendInterval exponential(300s)
attr unit s
par WirelessC.mobileHost.app[0] timeToLive -1
par WirelessC.mobileHost.app[0] dontFragment false
par WirelessC.mobileHost.app[0] dscp -1
par WirelessC.mobileHost.app[0] tos -1
par WirelessC.mobileHost.app[0] multicastInterface "\"\""
par WirelessC.mobileHost.app[0] receiveBroadcast false
par WirelessC.mobileHost.app[0] joinLocalMulticastGroups false
par WirelessC.mobileHost.app[0] stopOperationExtraTime -1s
attr unit s
par WirelessC.mobileHost.app[0] stopOperationTimeout 2s
attr unit s
scalar WirelessC.mobileHost.app[0] "packets sent" 0
scalar WirelessC.mobileHost.app[0] "packets received" 0
scalar WirelessC.mobileHost.app[0] packetReceived:count 0
attr interpolationmode none
attr recordingmode count
attr source packetReceived
attr title "packets received, count"
scalar WirelessC.mobileHost.app[0] packetReceived:sum(packetBytes) 0
attr interpolationmode none
attr recordingmode sum(packetBytes)
attr source packetReceived
attr title "packets received, sum(packetBytes)"
statistic WirelessC.mobileHost.app[0] rcvdPkLifetime:stats
field count 0
field mean nan
field stddev nan
field min nan
field max nan
field sum 0
field sqrsum 0
attr interpolationmode none
attr recordingmode stats
attr source dataAge(packetReceived)
attr title "received packet lifetime"
attr unit s
scalar WirelessC.mobileHost.app[0] packetSent:count 0
attr interpolationmode none
attr recordingmode count
attr source packetSent
attr title "packets sent, count"
scalar WirelessC.mobileHost.app[0] packetSent:sum(packetBytes) 0
attr interpolationmode none
attr recordingmode sum(packetBytes)
attr source packetSent
attr title "packets sent, sum(packetBytes)"
par WirelessC.mobileHost.at typename "\"inet.common.MessageDispatcher\""
par WirelessC.mobileHost.at displayStringTextFormat "\"processed %p pk (%l)\""
par WirelessC.mobileHost typename "\"inet.node.inet.WirelessHost\""
par WirelessC.mobileHost hasStatus false
par WirelessC.mobileHost osgModel "\"\""
par WirelessC.mobileHost osgModelColor "\"\""
par WirelessC.mobileHost canvasImage "\"\""
par WirelessC.mobileHost canvasImageColor "\"\""
par WirelessC.mobileHost recordPcap false
par WirelessC.mobileHost numPcapRecorders 0
par WirelessC.mobileHost numLoInterfaces 1
par WirelessC.mobileHost numWlanInterfaces 1
par WirelessC.mobileHost numEthInterfaces 0
par WirelessC.mobileHost numPppInterfaces 0
par WirelessC.mobileHost numTunInterfaces 0
par WirelessC.mobileHost numVirtInterfaces 0
par WirelessC.mobileHost hasIpv4 true
par WirelessC.mobileHost hasIpv6 false
par WirelessC.mobileHost hasGn false
par WirelessC.mobileHost forwarding false
par WirelessC.mobileHost multicastForwarding false
par WirelessC.mobileHost hasUdp true
par WirelessC.mobileHost hasTcp true
par WirelessC.mobileHost hasSctp false
par WirelessC.mobileHost numApps 1
par WirelessC.host00.radioIn[0].channel typename "\"ned.IdealChannel\""
par WirelessC.host00.mobility typename "\"inet.mobility.static.StationaryMobility\""
par WirelessC.host00.mobility subjectModule "\"^\""
par WirelessC.host00.mobility coordinateSystemModule "\"\""
par WirelessC.host00.mobility displayStringTextFormat "\"p: %p\\nv: %v\""
attr mutable ""
par WirelessC.host00.mobility updateDisplayString true
par WirelessC.host00.mobility constraintAreaMinX "-inf m"
attr unit m
par WirelessC.host00.mobility constraintAreaMinY "-inf m"
attr unit m
[...]
scalar WirelessC.host99.wlan[0].mac rcvdPkFromLl:sum(packetBytes) 0
attr interpolationmode none
attr recordingmode sum(packetBytes)
attr source packetReceivedFromLower
attr title "packets received from lower layer, sum(packetBytes)"
scalar WirelessC.host99.wlan[0].mac sentDownPk:count 0
attr interpolationmode none
attr recordingmode count
attr source packetSentToLower
attr title "packets sent to lower layer, count"
scalar WirelessC.host99.wlan[0].mac sentDownPk:sum(packetBytes) 0
attr interpolationmode none
attr recordingmode sum(packetBytes)
attr source packetSentToLower
attr title "packets sent to lower layer, sum(packetBytes)"
scalar WirelessC.host99.wlan[0].mac rcvdPkFromHl:count 0
attr interpolationmode none
attr recordingmode count
attr source packetReceivedFromUpper
attr title "packets received from higher layer, count"
scalar WirelessC.host99.wlan[0].mac rcvdPkFromHl:sum(packetBytes) 0
attr interpolationmode none
attr recordingmode sum(packetBytes)
attr source packetReceivedFromUpper
attr title "packets received from higher layer, sum(packetBytes)"
scalar WirelessC.host99.wlan[0].mac passedUpPk:count 0
attr interpolationmode none
attr recordingmode count
attr source packetSentToUpper
attr title "packets passed to higher layer, count"
scalar WirelessC.host99.wlan[0].mac passedUpPk:sum(packetBytes) 0
attr interpolationmode none
attr recordingmode sum(packetBytes)
attr source packetSentToUpper
attr title "packets passed to higher layer, sum(packetBytes)"
scalar WirelessC.host99.wlan[0].mac packetDropIncorrectlyReceived:count 0
attr interpolationmode none
attr recordingmode count
attr source packetDropReasonIsIncorrectlyReceived(packetDropped)
attr title "packet drop: incorrectly received, count"
scalar WirelessC.host99.wlan[0].mac packetDropIncorrectlyReceived:sum(packetBytes) 0
attr interpolationmode none
attr recordingmode sum(packetBytes)
attr source packetDropReasonIsIncorrectlyReceived(packetDropped)
attr title "packet drop: incorrectly received, sum(packetBytes)"
scalar WirelessC.host99.wlan[0].mac packetDropInterfaceDown:count 0
attr interpolationmode none
attr recordingmode count
attr source packetDropReasonIsInterfaceDown(packetDropped)
attr title "packet drop: interface down, count"
scalar WirelessC.host99.wlan[0].mac packetDropInterfaceDown:sum(packetBytes) 0
attr interpolationmode none
attr recordingmode sum(packetBytes)
attr source packetDropReasonIsInterfaceDown(packetDropped)
attr title "packet drop: interface down, sum(packetBytes)"
scalar WirelessC.host99.wlan[0].mac packetDropNotAddressedToUs:count 0
attr interpolationmode none
attr recordingmode count
attr source packetDropReasonIsNotAddressedToUs(packetDropped)
attr title "packet drop: not addressed to us, count"
scalar WirelessC.host99.wlan[0].mac packetDropNotAddressedToUs:sum(packetBytes) 0
attr interpolationmode none
attr recordingmode sum(packetBytes)
attr source packetDropReasonIsNotAddressedToUs(packetDropped)
attr title "packet drop: not addressed to us, sum(packetBytes)"
scalar WirelessC.host99.wlan[0].mac linkBroken:count 0
attr interpolationmode none
attr recordingmode count
attr source linkBroken
attr title "link break, count"
par WirelessC.host99.wlan[0].radio.antenna typename "\"inet.physicallayer.wireless.common.antenna.IsotropicAntenna\""
par WirelessC.host99.wlan[0].radio.antenna mobilityModule "\"^.^.^.mobility\""
par WirelessC.host99.wlan[0].radio.antenna numAntennas 1
par WirelessC.host99.wlan[0].radio.transmitter typename "\"inet.physicallayer.wireless.unitdisk.UnitDiskTransmitter\""
par WirelessC.host99.wlan[0].radio.transmitter preambleDuration 0s
attr unit s
par WirelessC.host99.wlan[0].radio.transmitter headerLength 96b
attr unit b
par WirelessC.host99.wlan[0].radio.transmitter bitrate 1e+06bps
attr unit bps
par WirelessC.host99.wlan[0].radio.transmitter communicationRange 50m
attr unit m
par WirelessC.host99.wlan[0].radio.transmitter interferenceRange 50m
attr unit m
par WirelessC.host99.wlan[0].radio.transmitter detectionRange 50m
attr unit m
par WirelessC.host99.wlan[0].radio.receiver typename "\"inet.physicallayer.wireless.unitdisk.UnitDiskReceiver\""
par WirelessC.host99.wlan[0].radio.receiver ignoreInterference true
par WirelessC.host99.wlan[0].radio typename "\"inet.physicallayer.wireless.unitdisk.UnitDiskRadio\""
par WirelessC.host99.wlan[0].radio radioMediumModule "\"radioMedium\""
par WirelessC.host99.wlan[0].radio energySourceModule "\"\""
par WirelessC.host99.wlan[0].radio initialRadioMode "\"off\""
attr enum off,sleep,receiver,transmitter,transceiver
par WirelessC.host99.wlan[0].radio switchingTimes "\"ms 0 0 0 0 0 0 0 0 0 0 0 0 0 0 0 0 0 0 0 0 0 0 0 0 0\""
par WirelessC.host99.wlan[0].radio sendRawBytes false
par WirelessC.host99.wlan[0].radio separateTransmissionParts false
par WirelessC.host99.wlan[0].radio separateReceptionParts false
par WirelessC.host99.wlan[0].radio displayCommunicationRange true
par WirelessC.host99.wlan[0].radio displayInterferenceRange false
statistic WirelessC.host99.wlan[0].radio minSnir:histogram
field count 0
field mean nan
field stddev nan
field min nan
field max nan
field sum 0
field sqrsum 0
attr recordingmode histogram
attr source minimumSnir(packetSentToUpper)
attr title "Min SNIR"
bin	-inf	0
bin	0	0
bin	1	0
statistic WirelessC.host99.wlan[0].radio packetErrorRate:histogram
field count 0
field mean nan
field stddev nan
field min nan
field max nan
field sum 0
field sqrsum 0
attr recordingmode histogram
attr source packetErrorRate(packetSentToUpper)
attr title "Packet error rate"
bin	-inf	0
bin	0	0
bin	1	0
statistic WirelessC.host99.wlan[0].radio bitErrorRate:histogram
field count 0
field mean nan
field stddev nan
field min nan
field max nan
field sum 0
field sqrsum 0
attr recordingmode histogram
attr source bitErrorRate(packetSentToUpper)
attr title "Bit error rate"
bin	-inf	0
bin	0	0
bin	1	0
statistic WirelessC.host99.wlan[0].radio symbolErrorRate:histogram
field count 0
field mean nan
field stddev nan
field min nan
field max nan
field sum 0
field sqrsum 0
attr recordingmode histogram
attr source symbolErrorRate(packetSentToUpper)
attr title "Symbol error rate"
bin	-inf	0
bin	0	0
bin	1	0
scalar WirelessC.host99.wlan[0].radio transmissionState:count 0
attr interpolationmode sample-hold
attr recordingmode count
attr source transmissionStateChanged
attr title "Radio transmission state, count"
scalar WirelessC.host99.wlan[0].radio receptionState:count 1
attr interpolationmode sample-hold
attr recordingmode count
attr source receptionStateChanged
attr title "Radio reception state, count"
scalar WirelessC.host99.wlan[0].radio radioMode:count 3
attr interpolationmode sample-hold
attr recordingmode count
attr source radioModeChanged
attr title "Radio mode, count"
par WirelessC.host99.wlan[0] typename "\"inet.linklayer.acking.AckingWirelessInterface\""
par WirelessC.host99.wlan[0] displayStringTextFormat "\"%a (%i)\\n%m\""
par WirelessC.host99.wlan[0] recordPcap false
par WirelessC.host99.wlan[0] numPcapRecorders 0
par WirelessC.host99.wlan[0] interfaceTableModule "\"WirelessC.host99.interfaceTable\""
par WirelessC.host99.wlan[0] energySourceModule "\"\""
par WirelessC.host99.wlan[0] bitrate 1e+06bps
attr unit bps
par WirelessC.host99.ipv4.transportIn.channel typename "\"ned.IdealChannel\""
par WirelessC.host99.ipv4.up.out[0].channel typename "\"ned.IdealChannel\""
par WirelessC.host99.ipv4.lp.out[2].channel typename "\"ned.IdealChannel\""
par WirelessC.host99.ipv4.ifIn.channel typename "\"ned.IdealChannel\""
par WirelessC.host99.ipv4.configurator typename "\"inet.networklayer.configurator.ipv4.Ipv4NodeConfigurator\""
par WirelessC.host99.ipv4.configurator interfaceTableModule "\"WirelessC.host99.interfaceTable\""
par WirelessC.host99.ipv4.configurator routingTableModule "\"WirelessC.host99.ipv4.routingTable\""
par WirelessC.host99.ipv4.configurator networkConfiguratorModule "\"configurator\""
par WirelessC.host99.ipv4.configurator configureRoutingTable true
par WirelessC.host99.ipv4.routingTable typename "\"inet.networklayer.ipv4.Ipv4RoutingTable\""
par WirelessC.host99.ipv4.routingTable interfaceTableModule "\"WirelessC.host99.interfaceTable\""
par WirelessC.host99.ipv4.routingTable routerId "\"auto\""
par WirelessC.host99.ipv4.routingTable netmaskRoutes "\"*\""
par WirelessC.host99.ipv4.routingTable forwarding false
par WirelessC.host99.ipv4.routingTable multicastForwarding false
par WirelessC.host99.ipv4.routingTable useAdminDist false
par WirelessC.host99.ipv4.routingTable routingFile "\"\""
par WirelessC.host99.ipv4.natTable typename "\"inet.networklayer.ipv4.Ipv4NatTable\""
par WirelessC.host99.ipv4.natTable networkProtocolModule "\"^.ip\""
par WirelessC.host99.ipv4.natTable config "<config/> at content:1"
par WirelessC.host99.ipv4.up typename "\"inet.common.MessageDispatcher\""
par WirelessC.host99.ipv4.up displayStringTextFormat "\"processed %p pk (%l)\""
par WirelessC.host99.ipv4.igmp typename "\"inet.networklayer.ipv4.Igmpv2\""
par WirelessC.host99.ipv4.igmp interfaceTableModule "\"WirelessC.host99.interfaceTable\""
par WirelessC.host99.ipv4.igmp routingTableModule "\"WirelessC.host99.ipv4.routingTable\""
par WirelessC.host99.ipv4.igmp crcMode "\"declared\""
attr enum declared,computed
par WirelessC.host99.ipv4.igmp enabled true
par WirelessC.host99.ipv4.igmp robustnessVariable 2
par WirelessC.host99.ipv4.igmp queryInterval 125s
attr unit s
par WirelessC.host99.ipv4.igmp queryResponseInterval 10s
attr unit s
par WirelessC.host99.ipv4.igmp groupMembershipInterval 260s
attr unit s
par WirelessC.host99.ipv4.igmp otherQuerierPresentInterval 255s
attr unit s
par WirelessC.host99.ipv4.igmp startupQueryInterval 31.25s
attr unit s
par WirelessC.host99.ipv4.igmp startupQueryCount 2
par WirelessC.host99.ipv4.igmp lastMemberQueryInterval 1s
attr unit s
par WirelessC.host99.ipv4.igmp lastMemberQueryCount 2
par WirelessC.host99.ipv4.igmp unsolicitedReportInterval 10s
attr unit s
par WirelessC.host99.ipv4.icmp typename "\"inet.networklayer.ipv4.Icmp\""
par WirelessC.host99.ipv4.icmp interfaceTableModule "\"WirelessC.host99.interfaceTable\""
par WirelessC.host99.ipv4.icmp routingTableModule "\"WirelessC.host99.ipv4.routingTable\""
par WirelessC.host99.ipv4.icmp crcMode "\"declared\""
attr enum declared,computed
attr mutable ""
par WirelessC.host99.ipv4.icmp quoteLength 8B
attr mutable ""
attr unit B
par WirelessC.host99.ipv4.mp typename "\"inet.common.MessageDispatcher\""
par WirelessC.host99.ipv4.mp displayStringTextFormat "\"processed %p pk (%l)\""
par WirelessC.host99.ipv4.ip typename "\"inet.networklayer.ipv4.Ipv4\""
par WirelessC.host99.ipv4.ip interfaceTableModule "\"WirelessC.host99.interfaceTable\""
par WirelessC.host99.ipv4.ip routingTableModule "\"WirelessC.host99.ipv4.routingTable\""
par WirelessC.host99.ipv4.ip arpModule "\"WirelessC.host99.ipv4.arp\""
par WirelessC.host99.ipv4.ip icmpModule "\"WirelessC.host99.ipv4.icmp\""
par WirelessC.host99.ipv4.ip crcMode "\"declared\""
attr enum declared,computed
par WirelessC.host99.ipv4.ip timeToLive 32
par WirelessC.host99.ipv4.ip multicastTimeToLive 32
par WirelessC.host99.ipv4.ip fragmentTimeout 60s
attr unit s
par WirelessC.host99.ipv4.ip limitedBroadcast false
par WirelessC.host99.ipv4.ip directBroadcastInterfaces "\"\""
scalar WirelessC.host99.ipv4.ip packetDropAddressResolutionFailed:count 0
attr interpolationmode none
attr recordingmode count
attr source packetDropReasonIsAddressResolutionFailed(packetDropped)
attr title "packet drop: address resolution failed, count"
scalar WirelessC.host99.ipv4.ip packetDropAddressResolutionFailed:sum(packetBytes) 0
attr interpolationmode none
attr recordingmode sum(packetBytes)
attr source packetDropReasonIsAddressResolutionFailed(packetDropped)
attr title "packet drop: address resolution failed, sum(packetBytes)"
scalar WirelessC.host99.ipv4.ip packetDropHopLimitReached:count 0
attr interpolationmode none
attr recordingmode count
attr source packetDropReasonIsHopLimitReached(packetDropped)
attr title "packet drop: hop limit reached, count"
scalar WirelessC.host99.ipv4.ip packetDropHopLimitReached:sum(packetBytes) 0
attr interpolationmode none
attr recordingmode sum(packetBytes)
attr source packetDropReasonIsHopLimitReached(packetDropped)
attr title "packet drop: hop limit reached, sum(packetBytes)"
scalar WirelessC.host99.ipv4.ip packetDropForwardingDisabled:count 0
attr interpolationmode none
attr recordingmode count
attr source packetDropReasonIsForwardingDisabled(packetDropped)
attr title "packet drop: forwarding disabled, count"
scalar WirelessC.host99.ipv4.ip packetDropForwardingDisabled:sum(packetBytes) 0
attr interpolationmode none
attr recordingmode sum(packetBytes)
attr source packetDropReasonIsForwardingDisabled(packetDropped)
attr title "packet drop: forwarding disabled, sum(packetBytes)"
scalar WirelessC.host99.ipv4.ip packetDropNoInterfaceFound:count 0
attr interpolationmode none
attr recordingmode count
attr source packetDropReasonIsNoInterfaceFound(packetDropped)
attr title "packet drop: no interface found, count"
scalar WirelessC.host99.ipv4.ip packetDropNoInterfaceFound:sum(packetBytes) 0
attr interpolationmode none
attr recordingmode sum(packetBytes)
attr source packetDropReasonIsNoInterfaceFound(packetDropped)
attr title "packet drop: no interface found, sum(packetBytes)"
scalar WirelessC.host99.ipv4.ip packetDropNoRouteFound:count 0
attr interpolationmode none
attr recordingmode count
attr source packetDropReasonIsNoRouteFound(packetDropped)
attr title "packet drop: no route found, count"
scalar WirelessC.host99.ipv4.ip packetDropNoRouteFound:sum(packetBytes) 0
attr interpolationmode none
attr recordingmode sum(packetBytes)
attr source packetDropReasonIsNoRouteFound(packetDropped)
attr title "packet drop: no route found, sum(packetBytes)"
scalar WirelessC.host99.ipv4.ip packetDropUndefined:count 0
attr interpolationmode none
attr recordingmode count
attr source packetDropReasonIsUndefined(packetDropped)
attr title "packet drop: undefined, count"
scalar WirelessC.host99.ipv4.ip packetDropUndefined:sum(packetBytes) 0
attr interpolationmode none
attr recordingmode sum(packetBytes)
attr source packetDropReasonIsUndefined(packetDropped)
attr title "packet drop: undefined, sum(packetBytes)"
par WirelessC.host99.ipv4.arp typename "\"inet.networklayer.arp.ipv4.GlobalArp\""
par WirelessC.host99.ipv4.arp interfaceTableModule "\"WirelessC.host99.interfaceTable\""
par WirelessC.host99.ipv4.arp addressType "\"ipv4\""
attr enum ipv4,ipv6,mac,moduleid,modulepath
par WirelessC.host99.ipv4.lp typename "\"inet.common.MessageDispatcher\""
par WirelessC.host99.ipv4.lp displayStringTextFormat "\"processed %p pk (%l)\""
par WirelessC.host99.ipv4 typename "\"inet.networklayer.ipv4.Ipv4NetworkLayer\""
par WirelessC.host99.ipv4 forwarding false
par WirelessC.host99.ipv4 multicastForwarding false
par WirelessC.host99.ipv4 interfaceTableModule "\"WirelessC.host99.interfaceTable\""
par WirelessC.host99.ipv4 displayStringTextFormat "\"%i\""
par WirelessC.host99.nl typename "\"inet.common.MessageDispatcher\""
par WirelessC.host99.nl displayStringTextFormat "\"processed %p pk (%l)\""
par WirelessC.host99.udp typename "\"inet.transportlayer.udp.Udp\""
par WirelessC.host99.udp interfaceTableModule "\"WirelessC.host99.interfaceTable\""
par WirelessC.host99.udp icmpModule "\"^.ipv4.icmp\""
par WirelessC.host99.udp icmpv6Module "\"^.ipv6.icmpv6\""
par WirelessC.host99.udp crcMode "\"declared\""
attr enum disabled,declared,computed
scalar WirelessC.host99.udp packetReceived:count 0
attr interpolationmode none
attr recordingmode count
attr source packetReceived
attr title "packets received, count"
scalar WirelessC.host99.udp packetReceived:sum(packetBytes) 0
attr interpolationmode none
attr recordingmode sum(packetBytes)
attr source packetReceived
attr title "packets received, sum(packetBytes)"
scalar WirelessC.host99.udp packetSent:count 0
attr interpolationmode none
attr recordingmode count
attr source packetSent
attr title "packets sent, count"
scalar WirelessC.host99.udp packetSent:sum(packetBytes) 0
attr interpolationmode none
attr recordingmode sum(packetBytes)
attr source packetSent
attr title "packets sent, sum(packetBytes)"
scalar WirelessC.host99.udp passedUpPk:count 0
attr interpolationmode none
attr recordingmode count
attr source packetSentToUpper
attr title "packets passed up, count"
scalar WirelessC.host99.udp droppedPkWrongPort:count 0
attr interpolationmode none
attr recordingmode count
attr source packetDropReasonIsNoPortFound(packetDropped)
attr title "packets dropped (wrong port), count"
scalar WirelessC.host99.udp droppedPkBadChecksum:count 0
attr interpolationmode none
attr recordingmode count
attr source packetDropReasonIsIncorrectlyReceived(packetDropped)
attr title "packets dropped (checksum error), count"
par WirelessC.host99.tcp typename "\"inet.transportlayer.tcp.Tcp\""
par WirelessC.host99.tcp crcMode "\"declared\""
attr enum declared,computed
par WirelessC.host99.tcp advertisedWindow 7504
par WirelessC.host99.tcp delayedAcksEnabled false
par WirelessC.host99.tcp nagleEnabled true
par WirelessC.host99.tcp limitedTransmitEnabled false
par WirelessC.host99.tcp increasedIWEnabled false
par WirelessC.host99.tcp sackSupport false
par WirelessC.host99.tcp windowScalingSupport false
par WirelessC.host99.tcp windowScalingFactor -1
par WirelessC.host99.tcp timestampSupport false
par WirelessC.host99.tcp mss 536
par WirelessC.host99.tcp msl 120s
attr unit s
par WirelessC.host99.tcp tcpAlgorithmClass "\"TcpReno\""
attr enum TcpVegas,TcpWestwood,TcpNewReno,TcpReno,TcpTahoe,TcpNoCongestionControl
par WirelessC.host99.tcp useDataNotification false
par WirelessC.host99.tcp dupthresh 3
par WirelessC.host99.tcp initialSsthresh 4294967295
par WirelessC.host99.tcp stopOperationExtraTime 0s
attr unit s
par WirelessC.host99.tcp stopOperationTimeout 2s
attr unit s
par WirelessC.host99.tcp ecnWillingness false
par WirelessC.host99.tcp dctcpGamma 0.0625
par WirelessC.host99.tn typename "\"inet.common.MessageDispatcher\""
par WirelessC.host99.tn displayStringTextFormat "\"processed %p pk (%l)\""
par WirelessC.host99.app[0] typename "\"inet.applications.udpapp.SensorApp\""
par WirelessC.host99.app[0] sensorId 99
attr mutable ""
par WirelessC.host99.app[0] sensorData 21.33
attr mutable ""
par WirelessC.host99.app[0] interfaceTableModule "\"WirelessC.host99.interfaceTable\""
par WirelessC.host99.app[0] localPort 5000
par WirelessC.host99.app[0] stopOperationExtraTime -1s
attr unit s
par WirelessC.host99.app[0] stopOperationTimeout 2s
attr unit s
scalar WirelessC.host99.app[0] echoedPk:count 0
attr interpolationmode none
attr recordingmode count
attr source packetSent
attr title "packets echoed, count"
scalar WirelessC.host99.app[0] echoedPk:sum(packetBytes) 0
attr interpolationmode none
attr recordingmode sum(packetBytes)
attr source packetSent
attr title "packets echoed, sum(packetBytes)"
par WirelessC.host99.at typename "\"inet.common.MessageDispatcher\""
par WirelessC.host99.at displayStringTextFormat "\"processed %p pk (%l)\""
par WirelessC.host99 typename "\"inet.node.inet.WirelessHost\""
par WirelessC.host99 hasStatus false
par WirelessC.host99 osgModel "\"\""
par WirelessC.host99 osgModelColor "\"\""
par WirelessC.host99 canvasImage "\"\""
par WirelessC.host99 canvasImageColor "\"\""
par WirelessC.host99 recordPcap false
par WirelessC.host99 numPcapRecorders 0
par WirelessC.host99 numLoInterfaces 1
par WirelessC.host99 numWlanInterfaces 1
par WirelessC.host99 numEthInterfaces 0
par WirelessC.host99 numPppInterfaces 0
par WirelessC.host99 numTunInterfaces 0
par WirelessC.host99 numVirtInterfaces 0
par WirelessC.host99 hasIpv4 true
par WirelessC.host99 hasIpv6 false
par WirelessC.host99 hasGn false
par WirelessC.host99 forwarding false
par WirelessC.host99 multicastForwarding false
par WirelessC.host99 hasUdp true
par WirelessC.host99 hasTcp true
par WirelessC.host99 hasSctp false
par WirelessC.host99 numApps 1
par WirelessC typename "\"WirelessC\""

