file 229628 1733803146                                          
version 3
run Wireless05-0-20241210-10:54:16-8912
attr configname Wireless05
attr datetime 20241210-10:54:16
attr datetimef 20241210-105416
attr experiment Wireless05
attr inifile omnetpp.ini
attr iterationvars ""
attr iterationvarsd ""
attr iterationvarsf ""
attr measurement ""
attr network WirelessC
attr processid 8912
attr repetition 0
attr replication #0
attr resultdir results
attr runnumber 0
attr seedset 0
config image-path ../../../../../IoTOMNetpp/omnetpp-6.0.3/samples/inet4.3/images
config description "More nodes"
config network WirelessC
config sim-time-limit 200s
config *.host*.ipv4.arp.typename GlobalArp
config *.scenarioManager.script "xmldoc(\"scenarioB.xml\")"
config *.host*.numApps 1
config *.host*.app[0].typename SensorApp
config *.host*.app[0].localPort 5000
config *.host*.wlan[0].typename AckingWirelessInterface
config *.host*.wlan[0].mac.useAck false
config *.host*.wlan[0].mac.fullDuplex false
config *.host*.wlan[0].radio.transmitter.communicationRange 52m
config *.host*.wlan[0].radio.receiver.ignoreInterference true
config *.host*.wlan[0].mac.headerLength 23B
config *.host*.**.bitrate 1Mbps
config *.host*.wlan[0].radio.displayCommunicationRange true
config *.mobileHost.numApps 1
config *.mobileHost.app[0].typename DataCollectorApp
config *.mobileHost.app[0].destAddresses "\"host00 host01 host02 host03 host04 host05 host06 host07 host08 host09 host10 host11 host12 host13 host14 host15 host16 host17 host18 host19\""
config *.mobileHost.app[0].destPort 5000
config *.mobileHost.app[0].localPort 5001
config *.mobileHost.app[0].messageLength 1000B
config *.mobileHost.app[0].sendInterval exponential(10ms)
config *.mobileHost.app[0].packetName "\"UDPData\""
config *.mobileHost.wlan[0].typename AckingWirelessInterface
config *.mobileHost.wlan[0].mac.useAck false
config *.mobileHost.wlan[0].mac.fullDuplex false
config *.mobileHost.wlan[0].radio.transmitter.communicationRange 52m
config *.mobileHost.wlan[0].radio.receiver.ignoreInterference true
config *.mobileHost.wlan[0].mac.headerLength 23B
config *.mobileHost.**.bitrate 1Mbps
config *.mobileHost.wlan[0].radio.displayCommunicationRange true
config **.mobileHost.mobility.typename TurtleMobility
config **.mobileHost.mobility.turtleScript "xmldoc(\"movements.xml\", \"movements//movement[@id='2']\")"
config *.mobileHost.wlan[0].queue.packetCapacity 10
config *.visualizer.mobilityVisualizer.displayVelocities true
config *.visualizer.mobilityVisualizer.displayMovementTrails true
config **.scenarioManager.script "xmldoc(\"scenario.xml\")"

vector 0 WirelessC.mobileHost.wlan[0].mac.queue queueLength:vector ETV
attr autoWarmupFilter false
attr interpolationmode sample-hold
attr recordingmode vector
attr source "warmup(count(packetPushed) - count(packetPulled) - count(packetRemoved) - count(packetDropped))"
attr title "queue length"
attr type int
vector 1 WirelessC.mobileHost.udp passedUpPk:vector(count) ETV
attr interpolationmode none
attr recordingmode vector(count)
attr source packetSentToUpper
attr title "packets passed up, count"
vector 2 WirelessC.mobileHost.udp droppedPkWrongPort:vector(count) ETV
attr interpolationmode none
attr recordingmode vector(count)
attr source packetDropReasonIsNoPortFound(packetDropped)
attr title "packets dropped (wrong port), count"
vector 3 WirelessC.mobileHost.udp droppedPkBadChecksum:vector(count) ETV
attr interpolationmode none
attr recordingmode vector(count)
attr source packetDropReasonIsIncorrectlyReceived(packetDropped)
attr title "packets dropped (checksum error), count"
vector 4 WirelessC.host00.wlan[0].mac.queue queueLength:vector ETV
attr autoWarmupFilter false
attr interpolationmode sample-hold
attr recordingmode vector
attr source "warmup(count(packetPushed) - count(packetPulled) - count(packetRemoved) - count(packetDropped))"
attr title "queue length"
attr type int
vector 5 WirelessC.host00.udp passedUpPk:vector(count) ETV
attr interpolationmode none
attr recordingmode vector(count)
attr source packetSentToUpper
attr title "packets passed up, count"
vector 6 WirelessC.host00.udp droppedPkWrongPort:vector(count) ETV
attr interpolationmode none
attr recordingmode vector(count)
attr source packetDropReasonIsNoPortFound(packetDropped)
attr title "packets dropped (wrong port), count"
vector 7 WirelessC.host00.udp droppedPkBadChecksum:vector(count) ETV
attr interpolationmode none
attr recordingmode vector(count)
attr source packetDropReasonIsIncorrectlyReceived(packetDropped)
attr title "packets dropped (checksum error), count"
vector 8 WirelessC.host01.wlan[0].mac.queue queueLength:vector ETV
attr autoWarmupFilter false
attr interpolationmode sample-hold
attr recordingmode vector
attr source "warmup(count(packetPushed) - count(packetPulled) - count(packetRemoved) - count(packetDropped))"
attr title "queue length"
attr type int
vector 9 WirelessC.host01.udp passedUpPk:vector(count) ETV
attr interpolationmode none
attr recordingmode vector(count)
attr source packetSentToUpper
attr title "packets passed up, count"
vector 10 WirelessC.host01.udp droppedPkWrongPort:vector(count) ETV
attr interpolationmode none
attr recordingmode vector(count)
attr source packetDropReasonIsNoPortFound(packetDropped)
attr title "packets dropped (wrong port), count"
vector 11 WirelessC.host01.udp droppedPkBadChecksum:vector(count) ETV
attr interpolationmode none
attr recordingmode vector(count)
attr source packetDropReasonIsIncorrectlyReceived(packetDropped)
attr title "packets dropped (checksum error), count"
vector 12 WirelessC.host02.wlan[0].mac.queue queueLength:vector ETV
attr autoWarmupFilter false
attr interpolationmode sample-hold
attr recordingmode vector
attr source "warmup(count(packetPushed) - count(packetPulled) - count(packetRemoved) - count(packetDropped))"
attr title "queue length"
attr type int
vector 13 WirelessC.host02.udp passedUpPk:vector(count) ETV
attr interpolationmode none
attr recordingmode vector(count)
attr source packetSentToUpper
attr title "packets passed up, count"
vector 14 WirelessC.host02.udp droppedPkWrongPort:vector(count) ETV
attr interpolationmode none
attr recordingmode vector(count)
attr source packetDropReasonIsNoPortFound(packetDropped)
attr title "packets dropped (wrong port), count"
vector 15 WirelessC.host02.udp droppedPkBadChecksum:vector(count) ETV
attr interpolationmode none
attr recordingmode vector(count)
attr source packetDropReasonIsIncorrectlyReceived(packetDropped)
attr title "packets dropped (checksum error), count"
vector 16 WirelessC.host03.wlan[0].mac.queue queueLength:vector ETV
attr autoWarmupFilter false
attr interpolationmode sample-hold
attr recordingmode vector
attr source "warmup(count(packetPushed) - count(packetPulled) - count(packetRemoved) - count(packetDropped))"
attr title "queue length"
attr type int
vector 17 WirelessC.host03.udp passedUpPk:vector(count) ETV
attr interpolationmode none
attr recordingmode vector(count)
attr source packetSentToUpper
attr title "packets passed up, count"
vector 18 WirelessC.host03.udp droppedPkWrongPort:vector(count) ETV
attr interpolationmode none
attr recordingmode vector(count)
attr source packetDropReasonIsNoPortFound(packetDropped)
attr title "packets dropped (wrong port), count"
vector 19 WirelessC.host03.udp droppedPkBadChecksum:vector(count) ETV
attr interpolationmode none
attr recordingmode vector(count)
attr source packetDropReasonIsIncorrectlyReceived(packetDropped)
attr title "packets dropped (checksum error), count"
vector 20 WirelessC.host04.wlan[0].mac.queue queueLength:vector ETV
attr autoWarmupFilter false
attr interpolationmode sample-hold
attr recordingmode vector
attr source "warmup(count(packetPushed) - count(packetPulled) - count(packetRemoved) - count(packetDropped))"
attr title "queue length"
attr type int
vector 21 WirelessC.host04.udp passedUpPk:vector(count) ETV
attr interpolationmode none
attr recordingmode vector(count)
attr source packetSentToUpper
attr title "packets passed up, count"
vector 22 WirelessC.host04.udp droppedPkWrongPort:vector(count) ETV
attr interpolationmode none
attr recordingmode vector(count)
attr source packetDropReasonIsNoPortFound(packetDropped)
attr title "packets dropped (wrong port), count"
vector 23 WirelessC.host04.udp droppedPkBadChecksum:vector(count) ETV
attr interpolationmode none
attr recordingmode vector(count)
attr source packetDropReasonIsIncorrectlyReceived(packetDropped)
attr title "packets dropped (checksum error), count"
vector 24 WirelessC.host05.wlan[0].mac.queue queueLength:vector ETV
attr autoWarmupFilter false
attr interpolationmode sample-hold
attr recordingmode vector
attr source "warmup(count(packetPushed) - count(packetPulled) - count(packetRemoved) - count(packetDropped))"
attr title "queue length"
attr type int
vector 25 WirelessC.host05.udp passedUpPk:vector(count) ETV
attr interpolationmode none
attr recordingmode vector(count)
attr source packetSentToUpper
attr title "packets passed up, count"
vector 26 WirelessC.host05.udp droppedPkWrongPort:vector(count) ETV
attr interpolationmode none
attr recordingmode vector(count)
attr source packetDropReasonIsNoPortFound(packetDropped)
attr title "packets dropped (wrong port), count"
vector 27 WirelessC.host05.udp droppedPkBadChecksum:vector(count) ETV
attr interpolationmode none
attr recordingmode vector(count)
attr source packetDropReasonIsIncorrectlyReceived(packetDropped)
attr title "packets dropped (checksum error), count"
vector 28 WirelessC.host06.wlan[0].mac.queue queueLength:vector ETV
attr autoWarmupFilter false
attr interpolationmode sample-hold
attr recordingmode vector
attr source "warmup(count(packetPushed) - count(packetPulled) - count(packetRemoved) - count(packetDropped))"
attr title "queue length"
attr type int
vector 29 WirelessC.host06.udp passedUpPk:vector(count) ETV
attr interpolationmode none
attr recordingmode vector(count)
attr source packetSentToUpper
attr title "packets passed up, count"
vector 30 WirelessC.host06.udp droppedPkWrongPort:vector(count) ETV
attr interpolationmode none
attr recordingmode vector(count)
attr source packetDropReasonIsNoPortFound(packetDropped)
attr title "packets dropped (wrong port), count"
vector 31 WirelessC.host06.udp droppedPkBadChecksum:vector(count) ETV
attr interpolationmode none
attr recordingmode vector(count)
attr source packetDropReasonIsIncorrectlyReceived(packetDropped)
attr title "packets dropped (checksum error), count"
vector 32 WirelessC.host07.wlan[0].mac.queue queueLength:vector ETV
attr autoWarmupFilter false
attr interpolationmode sample-hold
attr recordingmode vector
attr source "warmup(count(packetPushed) - count(packetPulled) - count(packetRemoved) - count(packetDropped))"
attr title "queue length"
attr type int
vector 33 WirelessC.host07.udp passedUpPk:vector(count) ETV
attr interpolationmode none
attr recordingmode vector(count)
attr source packetSentToUpper
attr title "packets passed up, count"
vector 34 WirelessC.host07.udp droppedPkWrongPort:vector(count) ETV
attr interpolationmode none
attr recordingmode vector(count)
attr source packetDropReasonIsNoPortFound(packetDropped)
attr title "packets dropped (wrong port), count"
vector 35 WirelessC.host07.udp droppedPkBadChecksum:vector(count) ETV
attr interpolationmode none
attr recordingmode vector(count)
attr source packetDropReasonIsIncorrectlyReceived(packetDropped)
attr title "packets dropped (checksum error), count"
vector 36 WirelessC.host08.wlan[0].mac.queue queueLength:vector ETV
attr autoWarmupFilter false
attr interpolationmode sample-hold
attr recordingmode vector
attr source "warmup(count(packetPushed) - count(packetPulled) - count(packetRemoved) - count(packetDropped))"
attr title "queue length"
attr type int
vector 37 WirelessC.host08.udp passedUpPk:vector(count) ETV
attr interpolationmode none
attr recordingmode vector(count)
attr source packetSentToUpper
attr title "packets passed up, count"
vector 38 WirelessC.host08.udp droppedPkWrongPort:vector(count) ETV
attr interpolationmode none
attr recordingmode vector(count)
attr source packetDropReasonIsNoPortFound(packetDropped)
attr title "packets dropped (wrong port), count"
vector 39 WirelessC.host08.udp droppedPkBadChecksum:vector(count) ETV
attr interpolationmode none
attr recordingmode vector(count)
attr source packetDropReasonIsIncorrectlyReceived(packetDropped)
attr title "packets dropped (checksum error), count"
vector 40 WirelessC.host09.wlan[0].mac.queue queueLength:vector ETV
attr autoWarmupFilter false
attr interpolationmode sample-hold
attr recordingmode vector
attr source "warmup(count(packetPushed) - count(packetPulled) - count(packetRemoved) - count(packetDropped))"
attr title "queue length"
attr type int
vector 41 WirelessC.host09.udp passedUpPk:vector(count) ETV
attr interpolationmode none
attr recordingmode vector(count)
attr source packetSentToUpper
attr title "packets passed up, count"
vector 42 WirelessC.host09.udp droppedPkWrongPort:vector(count) ETV
attr interpolationmode none
attr recordingmode vector(count)
attr source packetDropReasonIsNoPortFound(packetDropped)
attr title "packets dropped (wrong port), count"
vector 43 WirelessC.host09.udp droppedPkBadChecksum:vector(count) ETV
attr interpolationmode none
attr recordingmode vector(count)
attr source packetDropReasonIsIncorrectlyReceived(packetDropped)
attr title "packets dropped (checksum error), count"
vector 44 WirelessC.host10.wlan[0].mac.queue queueLength:vector ETV
attr autoWarmupFilter false
attr interpolationmode sample-hold
attr recordingmode vector
attr source "warmup(count(packetPushed) - count(packetPulled) - count(packetRemoved) - count(packetDropped))"
attr title "queue length"
attr type int
vector 45 WirelessC.host10.udp passedUpPk:vector(count) ETV
attr interpolationmode none
attr recordingmode vector(count)
attr source packetSentToUpper
attr title "packets passed up, count"
vector 46 WirelessC.host10.udp droppedPkWrongPort:vector(count) ETV
attr interpolationmode none
attr recordingmode vector(count)
attr source packetDropReasonIsNoPortFound(packetDropped)
attr title "packets dropped (wrong port), count"
vector 47 WirelessC.host10.udp droppedPkBadChecksum:vector(count) ETV
attr interpolationmode none
attr recordingmode vector(count)
attr source packetDropReasonIsIncorrectlyReceived(packetDropped)
attr title "packets dropped (checksum error), count"
vector 48 WirelessC.host11.wlan[0].mac.queue queueLength:vector ETV
attr autoWarmupFilter false
attr interpolationmode sample-hold
attr recordingmode vector
attr source "warmup(count(packetPushed) - count(packetPulled) - count(packetRemoved) - count(packetDropped))"
attr title "queue length"
attr type int
vector 49 WirelessC.host11.udp passedUpPk:vector(count) ETV
attr interpolationmode none
attr recordingmode vector(count)
attr source packetSentToUpper
attr title "packets passed up, count"
vector 50 WirelessC.host11.udp droppedPkWrongPort:vector(count) ETV
attr interpolationmode none
attr recordingmode vector(count)
attr source packetDropReasonIsNoPortFound(packetDropped)
attr title "packets dropped (wrong port), count"
vector 51 WirelessC.host11.udp droppedPkBadChecksum:vector(count) ETV
attr interpolationmode none
attr recordingmode vector(count)
attr source packetDropReasonIsIncorrectlyReceived(packetDropped)
attr title "packets dropped (checksum error), count"
vector 52 WirelessC.host12.wlan[0].mac.queue queueLength:vector ETV
attr autoWarmupFilter false
attr interpolationmode sample-hold
attr recordingmode vector
attr source "warmup(count(packetPushed) - count(packetPulled) - count(packetRemoved) - count(packetDropped))"
attr title "queue length"
attr type int
vector 53 WirelessC.host12.udp passedUpPk:vector(count) ETV
attr interpolationmode none
attr recordingmode vector(count)
attr source packetSentToUpper
attr title "packets passed up, count"
vector 54 WirelessC.host12.udp droppedPkWrongPort:vector(count) ETV
attr interpolationmode none
attr recordingmode vector(count)
attr source packetDropReasonIsNoPortFound(packetDropped)
attr title "packets dropped (wrong port), count"
vector 55 WirelessC.host12.udp droppedPkBadChecksum:vector(count) ETV
attr interpolationmode none
attr recordingmode vector(count)
attr source packetDropReasonIsIncorrectlyReceived(packetDropped)
attr title "packets dropped (checksum error), count"
vector 56 WirelessC.host13.wlan[0].mac.queue queueLength:vector ETV
attr autoWarmupFilter false
attr interpolationmode sample-hold
attr recordingmode vector
attr source "warmup(count(packetPushed) - count(packetPulled) - count(packetRemoved) - count(packetDropped))"
attr title "queue length"
attr type int
vector 57 WirelessC.host13.udp passedUpPk:vector(count) ETV
attr interpolationmode none
attr recordingmode vector(count)
attr source packetSentToUpper
attr title "packets passed up, count"
vector 58 WirelessC.host13.udp droppedPkWrongPort:vector(count) ETV
attr interpolationmode none
attr recordingmode vector(count)
attr source packetDropReasonIsNoPortFound(packetDropped)
attr title "packets dropped (wrong port), count"
vector 59 WirelessC.host13.udp droppedPkBadChecksum:vector(count) ETV
attr interpolationmode none
attr recordingmode vector(count)
attr source packetDropReasonIsIncorrectlyReceived(packetDropped)
attr title "packets dropped (checksum error), count"
vector 60 WirelessC.host14.wlan[0].mac.queue queueLength:vector ETV
attr autoWarmupFilter false
attr interpolationmode sample-hold
attr recordingmode vector
attr source "warmup(count(packetPushed) - count(packetPulled) - count(packetRemoved) - count(packetDropped))"
attr title "queue length"
attr type int
vector 61 WirelessC.host14.udp passedUpPk:vector(count) ETV
attr interpolationmode none
attr recordingmode vector(count)
attr source packetSentToUpper
attr title "packets passed up, count"
vector 62 WirelessC.host14.udp droppedPkWrongPort:vector(count) ETV
attr interpolationmode none
attr recordingmode vector(count)
attr source packetDropReasonIsNoPortFound(packetDropped)
attr title "packets dropped (wrong port), count"
vector 63 WirelessC.host14.udp droppedPkBadChecksum:vector(count) ETV
attr interpolationmode none
attr recordingmode vector(count)
attr source packetDropReasonIsIncorrectlyReceived(packetDropped)
attr title "packets dropped (checksum error), count"
vector 64 WirelessC.host15.wlan[0].mac.queue queueLength:vector ETV
attr autoWarmupFilter false
attr interpolationmode sample-hold
attr recordingmode vector
attr source "warmup(count(packetPushed) - count(packetPulled) - count(packetRemoved) - count(packetDropped))"
attr title "queue length"
attr type int
vector 65 WirelessC.host15.udp passedUpPk:vector(count) ETV
attr interpolationmode none
attr recordingmode vector(count)
attr source packetSentToUpper
attr title "packets passed up, count"
vector 66 WirelessC.host15.udp droppedPkWrongPort:vector(count) ETV
attr interpolationmode none
attr recordingmode vector(count)
attr source packetDropReasonIsNoPortFound(packetDropped)
attr title "packets dropped (wrong port), count"
vector 67 WirelessC.host15.udp droppedPkBadChecksum:vector(count) ETV
attr interpolationmode none
attr recordingmode vector(count)
attr source packetDropReasonIsIncorrectlyReceived(packetDropped)
attr title "packets dropped (checksum error), count"
vector 68 WirelessC.host16.wlan[0].mac.queue queueLength:vector ETV
attr autoWarmupFilter false
attr interpolationmode sample-hold
attr recordingmode vector
attr source "warmup(count(packetPushed) - count(packetPulled) - count(packetRemoved) - count(packetDropped))"
attr title "queue length"
attr type int
vector 69 WirelessC.host16.udp passedUpPk:vector(count) ETV
attr interpolationmode none
attr recordingmode vector(count)
attr source packetSentToUpper
attr title "packets passed up, count"
vector 70 WirelessC.host16.udp droppedPkWrongPort:vector(count) ETV
attr interpolationmode none
attr recordingmode vector(count)
attr source packetDropReasonIsNoPortFound(packetDropped)
attr title "packets dropped (wrong port), count"
vector 71 WirelessC.host16.udp droppedPkBadChecksum:vector(count) ETV
attr interpolationmode none
attr recordingmode vector(count)
attr source packetDropReasonIsIncorrectlyReceived(packetDropped)
attr title "packets dropped (checksum error), count"
vector 72 WirelessC.host17.wlan[0].mac.queue queueLength:vector ETV
attr autoWarmupFilter false
attr interpolationmode sample-hold
attr recordingmode vector
attr source "warmup(count(packetPushed) - count(packetPulled) - count(packetRemoved) - count(packetDropped))"
attr title "queue length"
attr type int
vector 73 WirelessC.host17.udp passedUpPk:vector(count) ETV
attr interpolationmode none
attr recordingmode vector(count)
attr source packetSentToUpper
attr title "packets passed up, count"
vector 74 WirelessC.host17.udp droppedPkWrongPort:vector(count) ETV
attr interpolationmode none
attr recordingmode vector(count)
attr source packetDropReasonIsNoPortFound(packetDropped)
attr title "packets dropped (wrong port), count"
vector 75 WirelessC.host17.udp droppedPkBadChecksum:vector(count) ETV
attr interpolationmode none
attr recordingmode vector(count)
attr source packetDropReasonIsIncorrectlyReceived(packetDropped)
attr title "packets dropped (checksum error), count"
vector 76 WirelessC.host18.wlan[0].mac.queue queueLength:vector ETV
attr autoWarmupFilter false
attr interpolationmode sample-hold
attr recordingmode vector
attr source "warmup(count(packetPushed) - count(packetPulled) - count(packetRemoved) - count(packetDropped))"
attr title "queue length"
attr type int
vector 77 WirelessC.host18.udp passedUpPk:vector(count) ETV
attr interpolationmode none
attr recordingmode vector(count)
attr source packetSentToUpper
attr title "packets passed up, count"
vector 78 WirelessC.host18.udp droppedPkWrongPort:vector(count) ETV
attr interpolationmode none
attr recordingmode vector(count)
attr source packetDropReasonIsNoPortFound(packetDropped)
attr title "packets dropped (wrong port), count"
vector 79 WirelessC.host18.udp droppedPkBadChecksum:vector(count) ETV
attr interpolationmode none
attr recordingmode vector(count)
attr source packetDropReasonIsIncorrectlyReceived(packetDropped)
attr title "packets dropped (checksum error), count"
vector 80 WirelessC.host19.wlan[0].mac.queue queueLength:vector ETV
attr autoWarmupFilter false
attr interpolationmode sample-hold
attr recordingmode vector
attr source "warmup(count(packetPushed) - count(packetPulled) - count(packetRemoved) - count(packetDropped))"
attr title "queue length"
attr type int
vector 81 WirelessC.host19.udp passedUpPk:vector(count) ETV
attr interpolationmode none
attr recordingmode vector(count)
attr source packetSentToUpper
attr title "packets passed up, count"
vector 82 WirelessC.host19.udp droppedPkWrongPort:vector(count) ETV
attr interpolationmode none
attr recordingmode vector(count)
attr source packetDropReasonIsNoPortFound(packetDropped)
attr title "packets dropped (wrong port), count"
vector 83 WirelessC.host19.udp droppedPkBadChecksum:vector(count) ETV
attr interpolationmode none
attr recordingmode vector(count)
attr source packetDropReasonIsIncorrectlyReceived(packetDropped)
attr title "packets dropped (checksum error), count"
vector 84 WirelessC.host20.wlan[0].mac.queue queueLength:vector ETV
attr autoWarmupFilter false
attr interpolationmode sample-hold
attr recordingmode vector
attr source "warmup(count(packetPushed) - count(packetPulled) - count(packetRemoved) - count(packetDropped))"
attr title "queue length"
attr type int
vector 85 WirelessC.host20.udp passedUpPk:vector(count) ETV
attr interpolationmode none
attr recordingmode vector(count)
attr source packetSentToUpper
attr title "packets passed up, count"
vector 86 WirelessC.host20.udp droppedPkWrongPort:vector(count) ETV
attr interpolationmode none
attr recordingmode vector(count)
attr source packetDropReasonIsNoPortFound(packetDropped)
attr title "packets dropped (wrong port), count"
vector 87 WirelessC.host20.udp droppedPkBadChecksum:vector(count) ETV
attr interpolationmode none
attr recordingmode vector(count)
attr source packetDropReasonIsIncorrectlyReceived(packetDropped)
attr title "packets dropped (checksum error), count"
vector 88 WirelessC.host21.wlan[0].mac.queue queueLength:vector ETV
attr autoWarmupFilter false
attr interpolationmode sample-hold
attr recordingmode vector
attr source "warmup(count(packetPushed) - count(packetPulled) - count(packetRemoved) - count(packetDropped))"
attr title "queue length"
attr type int
vector 89 WirelessC.host21.udp passedUpPk:vector(count) ETV
attr interpolationmode none
attr recordingmode vector(count)
attr source packetSentToUpper
attr title "packets passed up, count"
vector 90 WirelessC.host21.udp droppedPkWrongPort:vector(count) ETV
attr interpolationmode none
attr recordingmode vector(count)
attr source packetDropReasonIsNoPortFound(packetDropped)
attr title "packets dropped (wrong port), count"
vector 91 WirelessC.host21.udp droppedPkBadChecksum:vector(count) ETV
attr interpolationmode none
attr recordingmode vector(count)
attr source packetDropReasonIsIncorrectlyReceived(packetDropped)
attr title "packets dropped (checksum error), count"
vector 92 WirelessC.host22.wlan[0].mac.queue queueLength:vector ETV
attr autoWarmupFilter false
attr interpolationmode sample-hold
attr recordingmode vector
attr source "warmup(count(packetPushed) - count(packetPulled) - count(packetRemoved) - count(packetDropped))"
attr title "queue length"
attr type int
vector 93 WirelessC.host22.udp passedUpPk:vector(count) ETV
attr interpolationmode none
attr recordingmode vector(count)
attr source packetSentToUpper
attr title "packets passed up, count"
vector 94 WirelessC.host22.udp droppedPkWrongPort:vector(count) ETV
attr interpolationmode none
attr recordingmode vector(count)
attr source packetDropReasonIsNoPortFound(packetDropped)
attr title "packets dropped (wrong port), count"
vector 95 WirelessC.host22.udp droppedPkBadChecksum:vector(count) ETV
attr interpolationmode none
attr recordingmode vector(count)
attr source packetDropReasonIsIncorrectlyReceived(packetDropped)
attr title "packets dropped (checksum error), count"
vector 96 WirelessC.host23.wlan[0].mac.queue queueLength:vector ETV
attr autoWarmupFilter false
attr interpolationmode sample-hold
attr recordingmode vector
attr source "warmup(count(packetPushed) - count(packetPulled) - count(packetRemoved) - count(packetDropped))"
attr title "queue length"
attr type int
vector 97 WirelessC.host23.udp passedUpPk:vector(count) ETV
attr interpolationmode none
attr recordingmode vector(count)
attr source packetSentToUpper
attr title "packets passed up, count"
vector 98 WirelessC.host23.udp droppedPkWrongPort:vector(count) ETV
attr interpolationmode none
attr recordingmode vector(count)
attr source packetDropReasonIsNoPortFound(packetDropped)
attr title "packets dropped (wrong port), count"
vector 99 WirelessC.host23.udp droppedPkBadChecksum:vector(count) ETV
attr interpolationmode none
attr recordingmode vector(count)
attr source packetDropReasonIsIncorrectlyReceived(packetDropped)
attr title "packets dropped (checksum error), count"
vector 100 WirelessC.host24.wlan[0].mac.queue queueLength:vector ETV
attr autoWarmupFilter false
attr interpolationmode sample-hold
attr recordingmode vector
attr source "warmup(count(packetPushed) - count(packetPulled) - count(packetRemoved) - count(packetDropped))"
attr title "queue length"
attr type int
vector 101 WirelessC.host24.udp passedUpPk:vector(count) ETV
attr interpolationmode none
attr recordingmode vector(count)
attr source packetSentToUpper
attr title "packets passed up, count"
vector 102 WirelessC.host24.udp droppedPkWrongPort:vector(count) ETV
attr interpolationmode none
attr recordingmode vector(count)
attr source packetDropReasonIsNoPortFound(packetDropped)
attr title "packets dropped (wrong port), count"
vector 103 WirelessC.host24.udp droppedPkBadChecksum:vector(count) ETV
attr interpolationmode none
attr recordingmode vector(count)
attr source packetDropReasonIsIncorrectlyReceived(packetDropped)
attr title "packets dropped (checksum error), count"
vector 104 WirelessC.host25.wlan[0].mac.queue queueLength:vector ETV
attr autoWarmupFilter false
attr interpolationmode sample-hold
attr recordingmode vector
attr source "warmup(count(packetPushed) - count(packetPulled) - count(packetRemoved) - count(packetDropped))"
attr title "queue length"
attr type int
vector 105 WirelessC.host25.udp passedUpPk:vector(count) ETV
attr interpolationmode none
attr recordingmode vector(count)
attr source packetSentToUpper
attr title "packets passed up, count"
vector 106 WirelessC.host25.udp droppedPkWrongPort:vector(count) ETV
attr interpolationmode none
attr recordingmode vector(count)
attr source packetDropReasonIsNoPortFound(packetDropped)
attr title "packets dropped (wrong port), count"
vector 107 WirelessC.host25.udp droppedPkBadChecksum:vector(count) ETV
attr interpolationmode none
attr recordingmode vector(count)
attr source packetDropReasonIsIncorrectlyReceived(packetDropped)
attr title "packets dropped (checksum error), count"
vector 108 WirelessC.host26.wlan[0].mac.queue queueLength:vector ETV
attr autoWarmupFilter false
attr interpolationmode sample-hold
attr recordingmode vector
attr source "warmup(count(packetPushed) - count(packetPulled) - count(packetRemoved) - count(packetDropped))"
attr title "queue length"
attr type int
vector 109 WirelessC.host26.udp passedUpPk:vector(count) ETV
attr interpolationmode none
attr recordingmode vector(count)
attr source packetSentToUpper
attr title "packets passed up, count"
vector 110 WirelessC.host26.udp droppedPkWrongPort:vector(count) ETV
attr interpolationmode none
attr recordingmode vector(count)
attr source packetDropReasonIsNoPortFound(packetDropped)
attr title "packets dropped (wrong port), count"
vector 111 WirelessC.host26.udp droppedPkBadChecksum:vector(count) ETV
attr interpolationmode none
attr recordingmode vector(count)
attr source packetDropReasonIsIncorrectlyReceived(packetDropped)
attr title "packets dropped (checksum error), count"
vector 112 WirelessC.host27.wlan[0].mac.queue queueLength:vector ETV
attr autoWarmupFilter false
attr interpolationmode sample-hold
attr recordingmode vector
attr source "warmup(count(packetPushed) - count(packetPulled) - count(packetRemoved) - count(packetDropped))"
attr title "queue length"
attr type int
vector 113 WirelessC.host27.udp passedUpPk:vector(count) ETV
attr interpolationmode none
attr recordingmode vector(count)
attr source packetSentToUpper
attr title "packets passed up, count"
vector 114 WirelessC.host27.udp droppedPkWrongPort:vector(count) ETV
attr interpolationmode none
attr recordingmode vector(count)
attr source packetDropReasonIsNoPortFound(packetDropped)
attr title "packets dropped (wrong port), count"
vector 115 WirelessC.host27.udp droppedPkBadChecksum:vector(count) ETV
attr interpolationmode none
attr recordingmode vector(count)
attr source packetDropReasonIsIncorrectlyReceived(packetDropped)
attr title "packets dropped (checksum error), count"
vector 116 WirelessC.host28.wlan[0].mac.queue queueLength:vector ETV
attr autoWarmupFilter false
attr interpolationmode sample-hold
attr recordingmode vector
attr source "warmup(count(packetPushed) - count(packetPulled) - count(packetRemoved) - count(packetDropped))"
attr title "queue length"
attr type int
vector 117 WirelessC.host28.udp passedUpPk:vector(count) ETV
attr interpolationmode none
attr recordingmode vector(count)
attr source packetSentToUpper
attr title "packets passed up, count"
vector 118 WirelessC.host28.udp droppedPkWrongPort:vector(count) ETV
attr interpolationmode none
attr recordingmode vector(count)
attr source packetDropReasonIsNoPortFound(packetDropped)
attr title "packets dropped (wrong port), count"
vector 119 WirelessC.host28.udp droppedPkBadChecksum:vector(count) ETV
attr interpolationmode none
attr recordingmode vector(count)
attr source packetDropReasonIsIncorrectlyReceived(packetDropped)
attr title "packets dropped (checksum error), count"
vector 120 WirelessC.host29.wlan[0].mac.queue queueLength:vector ETV
attr autoWarmupFilter false
attr interpolationmode sample-hold
attr recordingmode vector
attr source "warmup(count(packetPushed) - count(packetPulled) - count(packetRemoved) - count(packetDropped))"
attr title "queue length"
attr type int
vector 121 WirelessC.host29.udp passedUpPk:vector(count) ETV
attr interpolationmode none
attr recordingmode vector(count)
attr source packetSentToUpper
attr title "packets passed up, count"
vector 122 WirelessC.host29.udp droppedPkWrongPort:vector(count) ETV
attr interpolationmode none
attr recordingmode vector(count)
attr source packetDropReasonIsNoPortFound(packetDropped)
attr title "packets dropped (wrong port), count"
vector 123 WirelessC.host29.udp droppedPkBadChecksum:vector(count) ETV
attr interpolationmode none
attr recordingmode vector(count)
attr source packetDropReasonIsIncorrectlyReceived(packetDropped)
attr title "packets dropped (checksum error), count"
vector 124 WirelessC.host30.wlan[0].mac.queue queueLength:vector ETV
attr autoWarmupFilter false
attr interpolationmode sample-hold
attr recordingmode vector
attr source "warmup(count(packetPushed) - count(packetPulled) - count(packetRemoved) - count(packetDropped))"
attr title "queue length"
attr type int
vector 125 WirelessC.host30.udp passedUpPk:vector(count) ETV
attr interpolationmode none
attr recordingmode vector(count)
attr source packetSentToUpper
attr title "packets passed up, count"
vector 126 WirelessC.host30.udp droppedPkWrongPort:vector(count) ETV
attr interpolationmode none
attr recordingmode vector(count)
attr source packetDropReasonIsNoPortFound(packetDropped)
attr title "packets dropped (wrong port), count"
vector 127 WirelessC.host30.udp droppedPkBadChecksum:vector(count) ETV
attr interpolationmode none
attr recordingmode vector(count)
attr source packetDropReasonIsIncorrectlyReceived(packetDropped)
attr title "packets dropped (checksum error), count"
vector 128 WirelessC.host31.wlan[0].mac.queue queueLength:vector ETV
attr autoWarmupFilter false
attr interpolationmode sample-hold
attr recordingmode vector
attr source "warmup(count(packetPushed) - count(packetPulled) - count(packetRemoved) - count(packetDropped))"
attr title "queue length"
attr type int
vector 129 WirelessC.host31.udp passedUpPk:vector(count) ETV
attr interpolationmode none
attr recordingmode vector(count)
attr source packetSentToUpper
attr title "packets passed up, count"
vector 130 WirelessC.host31.udp droppedPkWrongPort:vector(count) ETV
attr interpolationmode none
attr recordingmode vector(count)
attr source packetDropReasonIsNoPortFound(packetDropped)
attr title "packets dropped (wrong port), count"
vector 131 WirelessC.host31.udp droppedPkBadChecksum:vector(count) ETV
attr interpolationmode none
attr recordingmode vector(count)
attr source packetDropReasonIsIncorrectlyReceived(packetDropped)
attr title "packets dropped (checksum error), count"
vector 132 WirelessC.host32.wlan[0].mac.queue queueLength:vector ETV
attr autoWarmupFilter false
attr interpolationmode sample-hold
attr recordingmode vector
attr source "warmup(count(packetPushed) - count(packetPulled) - count(packetRemoved) - count(packetDropped))"
attr title "queue length"
attr type int
vector 133 WirelessC.host32.udp passedUpPk:vector(count) ETV
attr interpolationmode none
attr recordingmode vector(count)
attr source packetSentToUpper
attr title "packets passed up, count"
vector 134 WirelessC.host32.udp droppedPkWrongPort:vector(count) ETV
attr interpolationmode none
attr recordingmode vector(count)
attr source packetDropReasonIsNoPortFound(packetDropped)
attr title "packets dropped (wrong port), count"
vector 135 WirelessC.host32.udp droppedPkBadChecksum:vector(count) ETV
attr interpolationmode none
attr recordingmode vector(count)
attr source packetDropReasonIsIncorrectlyReceived(packetDropped)
attr title "packets dropped (checksum error), count"
vector 136 WirelessC.host33.wlan[0].mac.queue queueLength:vector ETV
attr autoWarmupFilter false
attr interpolationmode sample-hold
attr recordingmode vector
attr source "warmup(count(packetPushed) - count(packetPulled) - count(packetRemoved) - count(packetDropped))"
attr title "queue length"
attr type int
vector 137 WirelessC.host33.udp passedUpPk:vector(count) ETV
attr interpolationmode none
attr recordingmode vector(count)
attr source packetSentToUpper
attr title "packets passed up, count"
vector 138 WirelessC.host33.udp droppedPkWrongPort:vector(count) ETV
attr interpolationmode none
attr recordingmode vector(count)
attr source packetDropReasonIsNoPortFound(packetDropped)
attr title "packets dropped (wrong port), count"
vector 139 WirelessC.host33.udp droppedPkBadChecksum:vector(count) ETV
attr interpolationmode none
attr recordingmode vector(count)
attr source packetDropReasonIsIncorrectlyReceived(packetDropped)
attr title "packets dropped (checksum error), count"
vector 140 WirelessC.host34.wlan[0].mac.queue queueLength:vector ETV
attr autoWarmupFilter false
attr interpolationmode sample-hold
attr recordingmode vector
attr source "warmup(count(packetPushed) - count(packetPulled) - count(packetRemoved) - count(packetDropped))"
attr title "queue length"
attr type int
vector 141 WirelessC.host34.udp passedUpPk:vector(count) ETV
attr interpolationmode none
attr recordingmode vector(count)
attr source packetSentToUpper
attr title "packets passed up, count"
vector 142 WirelessC.host34.udp droppedPkWrongPort:vector(count) ETV
attr interpolationmode none
attr recordingmode vector(count)
attr source packetDropReasonIsNoPortFound(packetDropped)
attr title "packets dropped (wrong port), count"
vector 143 WirelessC.host34.udp droppedPkBadChecksum:vector(count) ETV
attr interpolationmode none
attr recordingmode vector(count)
attr source packetDropReasonIsIncorrectlyReceived(packetDropped)
attr title "packets dropped (checksum error), count"
vector 144 WirelessC.host35.wlan[0].mac.queue queueLength:vector ETV
attr autoWarmupFilter false
attr interpolationmode sample-hold
attr recordingmode vector
attr source "warmup(count(packetPushed) - count(packetPulled) - count(packetRemoved) - count(packetDropped))"
attr title "queue length"
attr type int
vector 145 WirelessC.host35.udp passedUpPk:vector(count) ETV
attr interpolationmode none
attr recordingmode vector(count)
attr source packetSentToUpper
attr title "packets passed up, count"
vector 146 WirelessC.host35.udp droppedPkWrongPort:vector(count) ETV
attr interpolationmode none
attr recordingmode vector(count)
attr source packetDropReasonIsNoPortFound(packetDropped)
attr title "packets dropped (wrong port), count"
vector 147 WirelessC.host35.udp droppedPkBadChecksum:vector(count) ETV
attr interpolationmode none
attr recordingmode vector(count)
attr source packetDropReasonIsIncorrectlyReceived(packetDropped)
attr title "packets dropped (checksum error), count"
vector 148 WirelessC.host36.wlan[0].mac.queue queueLength:vector ETV
attr autoWarmupFilter false
attr interpolationmode sample-hold
attr recordingmode vector
attr source "warmup(count(packetPushed) - count(packetPulled) - count(packetRemoved) - count(packetDropped))"
attr title "queue length"
attr type int
vector 149 WirelessC.host36.udp passedUpPk:vector(count) ETV
attr interpolationmode none
attr recordingmode vector(count)
attr source packetSentToUpper
attr title "packets passed up, count"
vector 150 WirelessC.host36.udp droppedPkWrongPort:vector(count) ETV
attr interpolationmode none
attr recordingmode vector(count)
attr source packetDropReasonIsNoPortFound(packetDropped)
attr title "packets dropped (wrong port), count"
vector 151 WirelessC.host36.udp droppedPkBadChecksum:vector(count) ETV
attr interpolationmode none
attr recordingmode vector(count)
attr source packetDropReasonIsIncorrectlyReceived(packetDropped)
attr title "packets dropped (checksum error), count"
vector 152 WirelessC.host37.wlan[0].mac.queue queueLength:vector ETV
attr autoWarmupFilter false
attr interpolationmode sample-hold
attr recordingmode vector
attr source "warmup(count(packetPushed) - count(packetPulled) - count(packetRemoved) - count(packetDropped))"
attr title "queue length"
attr type int
vector 153 WirelessC.host37.udp passedUpPk:vector(count) ETV
attr interpolationmode none
attr recordingmode vector(count)
attr source packetSentToUpper
attr title "packets passed up, count"
vector 154 WirelessC.host37.udp droppedPkWrongPort:vector(count) ETV
attr interpolationmode none
attr recordingmode vector(count)
attr source packetDropReasonIsNoPortFound(packetDropped)
attr title "packets dropped (wrong port), count"
vector 155 WirelessC.host37.udp droppedPkBadChecksum:vector(count) ETV
attr interpolationmode none
attr recordingmode vector(count)
attr source packetDropReasonIsIncorrectlyReceived(packetDropped)
attr title "packets dropped (checksum error), count"
vector 156 WirelessC.host38.wlan[0].mac.queue queueLength:vector ETV
attr autoWarmupFilter false
attr interpolationmode sample-hold
attr recordingmode vector
attr source "warmup(count(packetPushed) - count(packetPulled) - count(packetRemoved) - count(packetDropped))"
attr title "queue length"
attr type int
vector 157 WirelessC.host38.udp passedUpPk:vector(count) ETV
attr interpolationmode none
attr recordingmode vector(count)
attr source packetSentToUpper
attr title "packets passed up, count"
vector 158 WirelessC.host38.udp droppedPkWrongPort:vector(count) ETV
attr interpolationmode none
attr recordingmode vector(count)
attr source packetDropReasonIsNoPortFound(packetDropped)
attr title "packets dropped (wrong port), count"
vector 159 WirelessC.host38.udp droppedPkBadChecksum:vector(count) ETV
attr interpolationmode none
attr recordingmode vector(count)
attr source packetDropReasonIsIncorrectlyReceived(packetDropped)
attr title "packets dropped (checksum error), count"
vector 160 WirelessC.host39.wlan[0].mac.queue queueLength:vector ETV
attr autoWarmupFilter false
attr interpolationmode sample-hold
attr recordingmode vector
attr source "warmup(count(packetPushed) - count(packetPulled) - count(packetRemoved) - count(packetDropped))"
attr title "queue length"
attr type int
vector 161 WirelessC.host39.udp passedUpPk:vector(count) ETV
attr interpolationmode none
attr recordingmode vector(count)
attr source packetSentToUpper
attr title "packets passed up, count"
vector 162 WirelessC.host39.udp droppedPkWrongPort:vector(count) ETV
attr interpolationmode none
attr recordingmode vector(count)
attr source packetDropReasonIsNoPortFound(packetDropped)
attr title "packets dropped (wrong port), count"
vector 163 WirelessC.host39.udp droppedPkBadChecksum:vector(count) ETV
attr interpolationmode none
attr recordingmode vector(count)
attr source packetDropReasonIsIncorrectlyReceived(packetDropped)
attr title "packets dropped (checksum error), count"
vector 164 WirelessC.host40.wlan[0].mac.queue queueLength:vector ETV
attr autoWarmupFilter false
attr interpolationmode sample-hold
attr recordingmode vector
attr source "warmup(count(packetPushed) - count(packetPulled) - count(packetRemoved) - count(packetDropped))"
attr title "queue length"
attr type int
vector 165 WirelessC.host40.udp passedUpPk:vector(count) ETV
attr interpolationmode none
attr recordingmode vector(count)
attr source packetSentToUpper
attr title "packets passed up, count"
vector 166 WirelessC.host40.udp droppedPkWrongPort:vector(count) ETV
attr interpolationmode none
attr recordingmode vector(count)
attr source packetDropReasonIsNoPortFound(packetDropped)
attr title "packets dropped (wrong port), count"
vector 167 WirelessC.host40.udp droppedPkBadChecksum:vector(count) ETV
attr interpolationmode none
attr recordingmode vector(count)
attr source packetDropReasonIsIncorrectlyReceived(packetDropped)
attr title "packets dropped (checksum error), count"
vector 168 WirelessC.host41.wlan[0].mac.queue queueLength:vector ETV
attr autoWarmupFilter false
attr interpolationmode sample-hold
attr recordingmode vector
attr source "warmup(count(packetPushed) - count(packetPulled) - count(packetRemoved) - count(packetDropped))"
attr title "queue length"
attr type int
vector 169 WirelessC.host41.udp passedUpPk:vector(count) ETV
attr interpolationmode none
attr recordingmode vector(count)
attr source packetSentToUpper
attr title "packets passed up, count"
vector 170 WirelessC.host41.udp droppedPkWrongPort:vector(count) ETV
attr interpolationmode none
attr recordingmode vector(count)
attr source packetDropReasonIsNoPortFound(packetDropped)
attr title "packets dropped (wrong port), count"
vector 171 WirelessC.host41.udp droppedPkBadChecksum:vector(count) ETV
attr interpolationmode none
attr recordingmode vector(count)
attr source packetDropReasonIsIncorrectlyReceived(packetDropped)
attr title "packets dropped (checksum error), count"
vector 172 WirelessC.host42.wlan[0].mac.queue queueLength:vector ETV
attr autoWarmupFilter false
attr interpolationmode sample-hold
attr recordingmode vector
attr source "warmup(count(packetPushed) - count(packetPulled) - count(packetRemoved) - count(packetDropped))"
attr title "queue length"
attr type int
vector 173 WirelessC.host42.udp passedUpPk:vector(count) ETV
attr interpolationmode none
attr recordingmode vector(count)
attr source packetSentToUpper
attr title "packets passed up, count"
vector 174 WirelessC.host42.udp droppedPkWrongPort:vector(count) ETV
attr interpolationmode none
attr recordingmode vector(count)
attr source packetDropReasonIsNoPortFound(packetDropped)
attr title "packets dropped (wrong port), count"
vector 175 WirelessC.host42.udp droppedPkBadChecksum:vector(count) ETV
attr interpolationmode none
attr recordingmode vector(count)
attr source packetDropReasonIsIncorrectlyReceived(packetDropped)
attr title "packets dropped (checksum error), count"
vector 176 WirelessC.host43.wlan[0].mac.queue queueLength:vector ETV
attr autoWarmupFilter false
attr interpolationmode sample-hold
attr recordingmode vector
attr source "warmup(count(packetPushed) - count(packetPulled) - count(packetRemoved) - count(packetDropped))"
attr title "queue length"
attr type int
vector 177 WirelessC.host43.udp passedUpPk:vector(count) ETV
attr interpolationmode none
attr recordingmode vector(count)
attr source packetSentToUpper
attr title "packets passed up, count"
vector 178 WirelessC.host43.udp droppedPkWrongPort:vector(count) ETV
attr interpolationmode none
attr recordingmode vector(count)
attr source packetDropReasonIsNoPortFound(packetDropped)
attr title "packets dropped (wrong port), count"
vector 179 WirelessC.host43.udp droppedPkBadChecksum:vector(count) ETV
attr interpolationmode none
attr recordingmode vector(count)
attr source packetDropReasonIsIncorrectlyReceived(packetDropped)
attr title "packets dropped (checksum error), count"
vector 180 WirelessC.host44.wlan[0].mac.queue queueLength:vector ETV
attr autoWarmupFilter false
attr interpolationmode sample-hold
attr recordingmode vector
attr source "warmup(count(packetPushed) - count(packetPulled) - count(packetRemoved) - count(packetDropped))"
attr title "queue length"
attr type int
vector 181 WirelessC.host44.udp passedUpPk:vector(count) ETV
attr interpolationmode none
attr recordingmode vector(count)
attr source packetSentToUpper
attr title "packets passed up, count"
vector 182 WirelessC.host44.udp droppedPkWrongPort:vector(count) ETV
attr interpolationmode none
attr recordingmode vector(count)
attr source packetDropReasonIsNoPortFound(packetDropped)
attr title "packets dropped (wrong port), count"
vector 183 WirelessC.host44.udp droppedPkBadChecksum:vector(count) ETV
attr interpolationmode none
attr recordingmode vector(count)
attr source packetDropReasonIsIncorrectlyReceived(packetDropped)
attr title "packets dropped (checksum error), count"
vector 184 WirelessC.host45.wlan[0].mac.queue queueLength:vector ETV
attr autoWarmupFilter false
attr interpolationmode sample-hold
attr recordingmode vector
attr source "warmup(count(packetPushed) - count(packetPulled) - count(packetRemoved) - count(packetDropped))"
attr title "queue length"
attr type int
vector 185 WirelessC.host45.udp passedUpPk:vector(count) ETV
attr interpolationmode none
attr recordingmode vector(count)
attr source packetSentToUpper
attr title "packets passed up, count"
vector 186 WirelessC.host45.udp droppedPkWrongPort:vector(count) ETV
attr interpolationmode none
attr recordingmode vector(count)
attr source packetDropReasonIsNoPortFound(packetDropped)
attr title "packets dropped (wrong port), count"
vector 187 WirelessC.host45.udp droppedPkBadChecksum:vector(count) ETV
attr interpolationmode none
attr recordingmode vector(count)
attr source packetDropReasonIsIncorrectlyReceived(packetDropped)
attr title "packets dropped (checksum error), count"
vector 188 WirelessC.host46.wlan[0].mac.queue queueLength:vector ETV
attr autoWarmupFilter false
attr interpolationmode sample-hold
attr recordingmode vector
attr source "warmup(count(packetPushed) - count(packetPulled) - count(packetRemoved) - count(packetDropped))"
attr title "queue length"
attr type int
vector 189 WirelessC.host46.udp passedUpPk:vector(count) ETV
attr interpolationmode none
attr recordingmode vector(count)
attr source packetSentToUpper
attr title "packets passed up, count"
vector 190 WirelessC.host46.udp droppedPkWrongPort:vector(count) ETV
attr interpolationmode none
attr recordingmode vector(count)
attr source packetDropReasonIsNoPortFound(packetDropped)
attr title "packets dropped (wrong port), count"
vector 191 WirelessC.host46.udp droppedPkBadChecksum:vector(count) ETV
attr interpolationmode none
attr recordingmode vector(count)
attr source packetDropReasonIsIncorrectlyReceived(packetDropped)
attr title "packets dropped (checksum error), count"
vector 192 WirelessC.host47.wlan[0].mac.queue queueLength:vector ETV
attr autoWarmupFilter false
attr interpolationmode sample-hold
attr recordingmode vector
attr source "warmup(count(packetPushed) - count(packetPulled) - count(packetRemoved) - count(packetDropped))"
attr title "queue length"
attr type int
vector 193 WirelessC.host47.udp passedUpPk:vector(count) ETV
attr interpolationmode none
attr recordingmode vector(count)
attr source packetSentToUpper
attr title "packets passed up, count"
vector 194 WirelessC.host47.udp droppedPkWrongPort:vector(count) ETV
attr interpolationmode none
attr recordingmode vector(count)
attr source packetDropReasonIsNoPortFound(packetDropped)
attr title "packets dropped (wrong port), count"
vector 195 WirelessC.host47.udp droppedPkBadChecksum:vector(count) ETV
attr interpolationmode none
attr recordingmode vector(count)
attr source packetDropReasonIsIncorrectlyReceived(packetDropped)
attr title "packets dropped (checksum error), count"
vector 196 WirelessC.host48.wlan[0].mac.queue queueLength:vector ETV
attr autoWarmupFilter false
attr interpolationmode sample-hold
attr recordingmode vector
attr source "warmup(count(packetPushed) - count(packetPulled) - count(packetRemoved) - count(packetDropped))"
attr title "queue length"
attr type int
vector 197 WirelessC.host48.udp passedUpPk:vector(count) ETV
attr interpolationmode none
attr recordingmode vector(count)
attr source packetSentToUpper
attr title "packets passed up, count"
vector 198 WirelessC.host48.udp droppedPkWrongPort:vector(count) ETV
attr interpolationmode none
attr recordingmode vector(count)
attr source packetDropReasonIsNoPortFound(packetDropped)
attr title "packets dropped (wrong port), count"
vector 199 WirelessC.host48.udp droppedPkBadChecksum:vector(count) ETV
attr interpolationmode none
attr recordingmode vector(count)
attr source packetDropReasonIsIncorrectlyReceived(packetDropped)
attr title "packets dropped (checksum error), count"
vector 200 WirelessC.host49.wlan[0].mac.queue queueLength:vector ETV
attr autoWarmupFilter false
attr interpolationmode sample-hold
attr recordingmode vector
attr source "warmup(count(packetPushed) - count(packetPulled) - count(packetRemoved) - count(packetDropped))"
attr title "queue length"
attr type int
vector 201 WirelessC.host49.udp passedUpPk:vector(count) ETV
attr interpolationmode none
attr recordingmode vector(count)
attr source packetSentToUpper
attr title "packets passed up, count"
vector 202 WirelessC.host49.udp droppedPkWrongPort:vector(count) ETV
attr interpolationmode none
attr recordingmode vector(count)
attr source packetDropReasonIsNoPortFound(packetDropped)
attr title "packets dropped (wrong port), count"
vector 203 WirelessC.host49.udp droppedPkBadChecksum:vector(count) ETV
attr interpolationmode none
attr recordingmode vector(count)
attr source packetDropReasonIsIncorrectlyReceived(packetDropped)
attr title "packets dropped (checksum error), count"
vector 204 WirelessC.host50.wlan[0].mac.queue queueLength:vector ETV
attr autoWarmupFilter false
attr interpolationmode sample-hold
attr recordingmode vector
attr source "warmup(count(packetPushed) - count(packetPulled) - count(packetRemoved) - count(packetDropped))"
attr title "queue length"
attr type int
vector 205 WirelessC.host50.udp passedUpPk:vector(count) ETV
attr interpolationmode none
attr recordingmode vector(count)
attr source packetSentToUpper
attr title "packets passed up, count"
vector 206 WirelessC.host50.udp droppedPkWrongPort:vector(count) ETV
attr interpolationmode none
attr recordingmode vector(count)
attr source packetDropReasonIsNoPortFound(packetDropped)
attr title "packets dropped (wrong port), count"
vector 207 WirelessC.host50.udp droppedPkBadChecksum:vector(count) ETV
attr interpolationmode none
attr recordingmode vector(count)
attr source packetDropReasonIsIncorrectlyReceived(packetDropped)
attr title "packets dropped (checksum error), count"
vector 208 WirelessC.host51.wlan[0].mac.queue queueLength:vector ETV
attr autoWarmupFilter false
attr interpolationmode sample-hold
attr recordingmode vector
attr source "warmup(count(packetPushed) - count(packetPulled) - count(packetRemoved) - count(packetDropped))"
attr title "queue length"
attr type int
vector 209 WirelessC.host51.udp passedUpPk:vector(count) ETV
attr interpolationmode none
attr recordingmode vector(count)
attr source packetSentToUpper
attr title "packets passed up, count"
vector 210 WirelessC.host51.udp droppedPkWrongPort:vector(count) ETV
attr interpolationmode none
attr recordingmode vector(count)
attr source packetDropReasonIsNoPortFound(packetDropped)
attr title "packets dropped (wrong port), count"
vector 211 WirelessC.host51.udp droppedPkBadChecksum:vector(count) ETV
attr interpolationmode none
attr recordingmode vector(count)
attr source packetDropReasonIsIncorrectlyReceived(packetDropped)
attr title "packets dropped (checksum error), count"
vector 212 WirelessC.host52.wlan[0].mac.queue queueLength:vector ETV
attr autoWarmupFilter false
attr interpolationmode sample-hold
attr recordingmode vector
attr source "warmup(count(packetPushed) - count(packetPulled) - count(packetRemoved) - count(packetDropped))"
attr title "queue length"
attr type int
vector 213 WirelessC.host52.udp passedUpPk:vector(count) ETV
attr interpolationmode none
attr recordingmode vector(count)
attr source packetSentToUpper
attr title "packets passed up, count"
vector 214 WirelessC.host52.udp droppedPkWrongPort:vector(count) ETV
attr interpolationmode none
attr recordingmode vector(count)
attr source packetDropReasonIsNoPortFound(packetDropped)
attr title "packets dropped (wrong port), count"
vector 215 WirelessC.host52.udp droppedPkBadChecksum:vector(count) ETV
attr interpolationmode none
attr recordingmode vector(count)
attr source packetDropReasonIsIncorrectlyReceived(packetDropped)
attr title "packets dropped (checksum error), count"
vector 216 WirelessC.host53.wlan[0].mac.queue queueLength:vector ETV
attr autoWarmupFilter false
attr interpolationmode sample-hold
attr recordingmode vector
attr source "warmup(count(packetPushed) - count(packetPulled) - count(packetRemoved) - count(packetDropped))"
attr title "queue length"
attr type int
vector 217 WirelessC.host53.udp passedUpPk:vector(count) ETV
attr interpolationmode none
attr recordingmode vector(count)
attr source packetSentToUpper
attr title "packets passed up, count"
vector 218 WirelessC.host53.udp droppedPkWrongPort:vector(count) ETV
attr interpolationmode none
attr recordingmode vector(count)
attr source packetDropReasonIsNoPortFound(packetDropped)
attr title "packets dropped (wrong port), count"
vector 219 WirelessC.host53.udp droppedPkBadChecksum:vector(count) ETV
attr interpolationmode none
attr recordingmode vector(count)
attr source packetDropReasonIsIncorrectlyReceived(packetDropped)
attr title "packets dropped (checksum error), count"
vector 220 WirelessC.host54.wlan[0].mac.queue queueLength:vector ETV
attr autoWarmupFilter false
attr interpolationmode sample-hold
attr recordingmode vector
attr source "warmup(count(packetPushed) - count(packetPulled) - count(packetRemoved) - count(packetDropped))"
attr title "queue length"
attr type int
vector 221 WirelessC.host54.udp passedUpPk:vector(count) ETV
attr interpolationmode none
attr recordingmode vector(count)
attr source packetSentToUpper
attr title "packets passed up, count"
vector 222 WirelessC.host54.udp droppedPkWrongPort:vector(count) ETV
attr interpolationmode none
attr recordingmode vector(count)
attr source packetDropReasonIsNoPortFound(packetDropped)
attr title "packets dropped (wrong port), count"
vector 223 WirelessC.host54.udp droppedPkBadChecksum:vector(count) ETV
attr interpolationmode none
attr recordingmode vector(count)
attr source packetDropReasonIsIncorrectlyReceived(packetDropped)
attr title "packets dropped (checksum error), count"
vector 224 WirelessC.host55.wlan[0].mac.queue queueLength:vector ETV
attr autoWarmupFilter false
attr interpolationmode sample-hold
attr recordingmode vector
attr source "warmup(count(packetPushed) - count(packetPulled) - count(packetRemoved) - count(packetDropped))"
attr title "queue length"
attr type int
vector 225 WirelessC.host55.udp passedUpPk:vector(count) ETV
attr interpolationmode none
attr recordingmode vector(count)
attr source packetSentToUpper
attr title "packets passed up, count"
vector 226 WirelessC.host55.udp droppedPkWrongPort:vector(count) ETV
attr interpolationmode none
attr recordingmode vector(count)
attr source packetDropReasonIsNoPortFound(packetDropped)
attr title "packets dropped (wrong port), count"
vector 227 WirelessC.host55.udp droppedPkBadChecksum:vector(count) ETV
attr interpolationmode none
attr recordingmode vector(count)
attr source packetDropReasonIsIncorrectlyReceived(packetDropped)
attr title "packets dropped (checksum error), count"
vector 228 WirelessC.host56.wlan[0].mac.queue queueLength:vector ETV
attr autoWarmupFilter false
attr interpolationmode sample-hold
attr recordingmode vector
attr source "warmup(count(packetPushed) - count(packetPulled) - count(packetRemoved) - count(packetDropped))"
attr title "queue length"
attr type int
vector 229 WirelessC.host56.udp passedUpPk:vector(count) ETV
attr interpolationmode none
attr recordingmode vector(count)
attr source packetSentToUpper
attr title "packets passed up, count"
vector 230 WirelessC.host56.udp droppedPkWrongPort:vector(count) ETV
attr interpolationmode none
attr recordingmode vector(count)
attr source packetDropReasonIsNoPortFound(packetDropped)
attr title "packets dropped (wrong port), count"
vector 231 WirelessC.host56.udp droppedPkBadChecksum:vector(count) ETV
attr interpolationmode none
attr recordingmode vector(count)
attr source packetDropReasonIsIncorrectlyReceived(packetDropped)
attr title "packets dropped (checksum error), count"
vector 232 WirelessC.host57.wlan[0].mac.queue queueLength:vector ETV
attr autoWarmupFilter false
attr interpolationmode sample-hold
attr recordingmode vector
attr source "warmup(count(packetPushed) - count(packetPulled) - count(packetRemoved) - count(packetDropped))"
attr title "queue length"
attr type int
vector 233 WirelessC.host57.udp passedUpPk:vector(count) ETV
attr interpolationmode none
attr recordingmode vector(count)
attr source packetSentToUpper
attr title "packets passed up, count"
vector 234 WirelessC.host57.udp droppedPkWrongPort:vector(count) ETV
attr interpolationmode none
attr recordingmode vector(count)
attr source packetDropReasonIsNoPortFound(packetDropped)
attr title "packets dropped (wrong port), count"
vector 235 WirelessC.host57.udp droppedPkBadChecksum:vector(count) ETV
attr interpolationmode none
attr recordingmode vector(count)
attr source packetDropReasonIsIncorrectlyReceived(packetDropped)
attr title "packets dropped (checksum error), count"
vector 236 WirelessC.host58.wlan[0].mac.queue queueLength:vector ETV
attr autoWarmupFilter false
attr interpolationmode sample-hold
attr recordingmode vector
attr source "warmup(count(packetPushed) - count(packetPulled) - count(packetRemoved) - count(packetDropped))"
attr title "queue length"
attr type int
vector 237 WirelessC.host58.udp passedUpPk:vector(count) ETV
attr interpolationmode none
attr recordingmode vector(count)
attr source packetSentToUpper
attr title "packets passed up, count"
vector 238 WirelessC.host58.udp droppedPkWrongPort:vector(count) ETV
attr interpolationmode none
attr recordingmode vector(count)
attr source packetDropReasonIsNoPortFound(packetDropped)
attr title "packets dropped (wrong port), count"
vector 239 WirelessC.host58.udp droppedPkBadChecksum:vector(count) ETV
attr interpolationmode none
attr recordingmode vector(count)
attr source packetDropReasonIsIncorrectlyReceived(packetDropped)
attr title "packets dropped (checksum error), count"
vector 240 WirelessC.host59.wlan[0].mac.queue queueLength:vector ETV
attr autoWarmupFilter false
attr interpolationmode sample-hold
attr recordingmode vector
attr source "warmup(count(packetPushed) - count(packetPulled) - count(packetRemoved) - count(packetDropped))"
attr title "queue length"
attr type int
vector 241 WirelessC.host59.udp passedUpPk:vector(count) ETV
attr interpolationmode none
attr recordingmode vector(count)
attr source packetSentToUpper
attr title "packets passed up, count"
vector 242 WirelessC.host59.udp droppedPkWrongPort:vector(count) ETV
attr interpolationmode none
attr recordingmode vector(count)
attr source packetDropReasonIsNoPortFound(packetDropped)
attr title "packets dropped (wrong port), count"
vector 243 WirelessC.host59.udp droppedPkBadChecksum:vector(count) ETV
attr interpolationmode none
attr recordingmode vector(count)
attr source packetDropReasonIsIncorrectlyReceived(packetDropped)
attr title "packets dropped (checksum error), count"
vector 244 WirelessC.host60.wlan[0].mac.queue queueLength:vector ETV
attr autoWarmupFilter false
attr interpolationmode sample-hold
attr recordingmode vector
attr source "warmup(count(packetPushed) - count(packetPulled) - count(packetRemoved) - count(packetDropped))"
attr title "queue length"
attr type int
vector 245 WirelessC.host60.udp passedUpPk:vector(count) ETV
attr interpolationmode none
attr recordingmode vector(count)
attr source packetSentToUpper
attr title "packets passed up, count"
vector 246 WirelessC.host60.udp droppedPkWrongPort:vector(count) ETV
attr interpolationmode none
attr recordingmode vector(count)
attr source packetDropReasonIsNoPortFound(packetDropped)
attr title "packets dropped (wrong port), count"
vector 247 WirelessC.host60.udp droppedPkBadChecksum:vector(count) ETV
attr interpolationmode none
attr recordingmode vector(count)
attr source packetDropReasonIsIncorrectlyReceived(packetDropped)
attr title "packets dropped (checksum error), count"
vector 248 WirelessC.host61.wlan[0].mac.queue queueLength:vector ETV
attr autoWarmupFilter false
attr interpolationmode sample-hold
attr recordingmode vector
attr source "warmup(count(packetPushed) - count(packetPulled) - count(packetRemoved) - count(packetDropped))"
attr title "queue length"
attr type int
vector 249 WirelessC.host61.udp passedUpPk:vector(count) ETV
attr interpolationmode none
attr recordingmode vector(count)
attr source packetSentToUpper
attr title "packets passed up, count"
vector 250 WirelessC.host61.udp droppedPkWrongPort:vector(count) ETV
attr interpolationmode none
attr recordingmode vector(count)
attr source packetDropReasonIsNoPortFound(packetDropped)
attr title "packets dropped (wrong port), count"
vector 251 WirelessC.host61.udp droppedPkBadChecksum:vector(count) ETV
attr interpolationmode none
attr recordingmode vector(count)
attr source packetDropReasonIsIncorrectlyReceived(packetDropped)
attr title "packets dropped (checksum error), count"
vector 252 WirelessC.host62.wlan[0].mac.queue queueLength:vector ETV
attr autoWarmupFilter false
attr interpolationmode sample-hold
attr recordingmode vector
attr source "warmup(count(packetPushed) - count(packetPulled) - count(packetRemoved) - count(packetDropped))"
attr title "queue length"
attr type int
vector 253 WirelessC.host62.udp passedUpPk:vector(count) ETV
attr interpolationmode none
attr recordingmode vector(count)
attr source packetSentToUpper
attr title "packets passed up, count"
vector 254 WirelessC.host62.udp droppedPkWrongPort:vector(count) ETV
attr interpolationmode none
attr recordingmode vector(count)
attr source packetDropReasonIsNoPortFound(packetDropped)
attr title "packets dropped (wrong port), count"
vector 255 WirelessC.host62.udp droppedPkBadChecksum:vector(count) ETV
attr interpolationmode none
attr recordingmode vector(count)
attr source packetDropReasonIsIncorrectlyReceived(packetDropped)
attr title "packets dropped (checksum error), count"
vector 256 WirelessC.host63.wlan[0].mac.queue queueLength:vector ETV
attr autoWarmupFilter false
attr interpolationmode sample-hold
attr recordingmode vector
attr source "warmup(count(packetPushed) - count(packetPulled) - count(packetRemoved) - count(packetDropped))"
attr title "queue length"
attr type int
vector 257 WirelessC.host63.udp passedUpPk:vector(count) ETV
attr interpolationmode none
attr recordingmode vector(count)
attr source packetSentToUpper
attr title "packets passed up, count"
vector 258 WirelessC.host63.udp droppedPkWrongPort:vector(count) ETV
attr interpolationmode none
attr recordingmode vector(count)
attr source packetDropReasonIsNoPortFound(packetDropped)
attr title "packets dropped (wrong port), count"
vector 259 WirelessC.host63.udp droppedPkBadChecksum:vector(count) ETV
attr interpolationmode none
attr recordingmode vector(count)
attr source packetDropReasonIsIncorrectlyReceived(packetDropped)
attr title "packets dropped (checksum error), count"
vector 260 WirelessC.host64.wlan[0].mac.queue queueLength:vector ETV
attr autoWarmupFilter false
attr interpolationmode sample-hold
attr recordingmode vector
attr source "warmup(count(packetPushed) - count(packetPulled) - count(packetRemoved) - count(packetDropped))"
attr title "queue length"
attr type int
vector 261 WirelessC.host64.udp passedUpPk:vector(count) ETV
attr interpolationmode none
attr recordingmode vector(count)
attr source packetSentToUpper
attr title "packets passed up, count"
vector 262 WirelessC.host64.udp droppedPkWrongPort:vector(count) ETV
attr interpolationmode none
attr recordingmode vector(count)
attr source packetDropReasonIsNoPortFound(packetDropped)
attr title "packets dropped (wrong port), count"
vector 263 WirelessC.host64.udp droppedPkBadChecksum:vector(count) ETV
attr interpolationmode none
attr recordingmode vector(count)
attr source packetDropReasonIsIncorrectlyReceived(packetDropped)
attr title "packets dropped (checksum error), count"
vector 264 WirelessC.host65.wlan[0].mac.queue queueLength:vector ETV
attr autoWarmupFilter false
attr interpolationmode sample-hold
attr recordingmode vector
attr source "warmup(count(packetPushed) - count(packetPulled) - count(packetRemoved) - count(packetDropped))"
attr title "queue length"
attr type int
vector 265 WirelessC.host65.udp passedUpPk:vector(count) ETV
attr interpolationmode none
attr recordingmode vector(count)
attr source packetSentToUpper
attr title "packets passed up, count"
vector 266 WirelessC.host65.udp droppedPkWrongPort:vector(count) ETV
attr interpolationmode none
attr recordingmode vector(count)
attr source packetDropReasonIsNoPortFound(packetDropped)
attr title "packets dropped (wrong port), count"
vector 267 WirelessC.host65.udp droppedPkBadChecksum:vector(count) ETV
attr interpolationmode none
attr recordingmode vector(count)
attr source packetDropReasonIsIncorrectlyReceived(packetDropped)
attr title "packets dropped (checksum error), count"
vector 268 WirelessC.host66.wlan[0].mac.queue queueLength:vector ETV
attr autoWarmupFilter false
attr interpolationmode sample-hold
attr recordingmode vector
attr source "warmup(count(packetPushed) - count(packetPulled) - count(packetRemoved) - count(packetDropped))"
attr title "queue length"
attr type int
vector 269 WirelessC.host66.udp passedUpPk:vector(count) ETV
attr interpolationmode none
attr recordingmode vector(count)
attr source packetSentToUpper
attr title "packets passed up, count"
vector 270 WirelessC.host66.udp droppedPkWrongPort:vector(count) ETV
attr interpolationmode none
attr recordingmode vector(count)
attr source packetDropReasonIsNoPortFound(packetDropped)
attr title "packets dropped (wrong port), count"
vector 271 WirelessC.host66.udp droppedPkBadChecksum:vector(count) ETV
attr interpolationmode none
attr recordingmode vector(count)
attr source packetDropReasonIsIncorrectlyReceived(packetDropped)
attr title "packets dropped (checksum error), count"
vector 272 WirelessC.host67.wlan[0].mac.queue queueLength:vector ETV
attr autoWarmupFilter false
attr interpolationmode sample-hold
attr recordingmode vector
attr source "warmup(count(packetPushed) - count(packetPulled) - count(packetRemoved) - count(packetDropped))"
attr title "queue length"
attr type int
vector 273 WirelessC.host67.udp passedUpPk:vector(count) ETV
attr interpolationmode none
attr recordingmode vector(count)
attr source packetSentToUpper
attr title "packets passed up, count"
vector 274 WirelessC.host67.udp droppedPkWrongPort:vector(count) ETV
attr interpolationmode none
attr recordingmode vector(count)
attr source packetDropReasonIsNoPortFound(packetDropped)
attr title "packets dropped (wrong port), count"
vector 275 WirelessC.host67.udp droppedPkBadChecksum:vector(count) ETV
attr interpolationmode none
attr recordingmode vector(count)
attr source packetDropReasonIsIncorrectlyReceived(packetDropped)
attr title "packets dropped (checksum error), count"
vector 276 WirelessC.host68.wlan[0].mac.queue queueLength:vector ETV
attr autoWarmupFilter false
attr interpolationmode sample-hold
attr recordingmode vector
attr source "warmup(count(packetPushed) - count(packetPulled) - count(packetRemoved) - count(packetDropped))"
attr title "queue length"
attr type int
vector 277 WirelessC.host68.udp passedUpPk:vector(count) ETV
attr interpolationmode none
attr recordingmode vector(count)
attr source packetSentToUpper
attr title "packets passed up, count"
vector 278 WirelessC.host68.udp droppedPkWrongPort:vector(count) ETV
attr interpolationmode none
attr recordingmode vector(count)
attr source packetDropReasonIsNoPortFound(packetDropped)
attr title "packets dropped (wrong port), count"
vector 279 WirelessC.host68.udp droppedPkBadChecksum:vector(count) ETV
attr interpolationmode none
attr recordingmode vector(count)
attr source packetDropReasonIsIncorrectlyReceived(packetDropped)
attr title "packets dropped (checksum error), count"
vector 280 WirelessC.host69.wlan[0].mac.queue queueLength:vector ETV
attr autoWarmupFilter false
attr interpolationmode sample-hold
attr recordingmode vector
attr source "warmup(count(packetPushed) - count(packetPulled) - count(packetRemoved) - count(packetDropped))"
attr title "queue length"
attr type int
vector 281 WirelessC.host69.udp passedUpPk:vector(count) ETV
attr interpolationmode none
attr recordingmode vector(count)
attr source packetSentToUpper
attr title "packets passed up, count"
vector 282 WirelessC.host69.udp droppedPkWrongPort:vector(count) ETV
attr interpolationmode none
attr recordingmode vector(count)
attr source packetDropReasonIsNoPortFound(packetDropped)
attr title "packets dropped (wrong port), count"
vector 283 WirelessC.host69.udp droppedPkBadChecksum:vector(count) ETV
attr interpolationmode none
attr recordingmode vector(count)
attr source packetDropReasonIsIncorrectlyReceived(packetDropped)
attr title "packets dropped (checksum error), count"
vector 284 WirelessC.host70.wlan[0].mac.queue queueLength:vector ETV
attr autoWarmupFilter false
attr interpolationmode sample-hold
attr recordingmode vector
attr source "warmup(count(packetPushed) - count(packetPulled) - count(packetRemoved) - count(packetDropped))"
attr title "queue length"
attr type int
vector 285 WirelessC.host70.udp passedUpPk:vector(count) ETV
attr interpolationmode none
attr recordingmode vector(count)
attr source packetSentToUpper
attr title "packets passed up, count"
vector 286 WirelessC.host70.udp droppedPkWrongPort:vector(count) ETV
attr interpolationmode none
attr recordingmode vector(count)
attr source packetDropReasonIsNoPortFound(packetDropped)
attr title "packets dropped (wrong port), count"
vector 287 WirelessC.host70.udp droppedPkBadChecksum:vector(count) ETV
attr interpolationmode none
attr recordingmode vector(count)
attr source packetDropReasonIsIncorrectlyReceived(packetDropped)
attr title "packets dropped (checksum error), count"
vector 288 WirelessC.host71.wlan[0].mac.queue queueLength:vector ETV
attr autoWarmupFilter false
attr interpolationmode sample-hold
attr recordingmode vector
attr source "warmup(count(packetPushed) - count(packetPulled) - count(packetRemoved) - count(packetDropped))"
attr title "queue length"
attr type int
vector 289 WirelessC.host71.udp passedUpPk:vector(count) ETV
attr interpolationmode none
attr recordingmode vector(count)
attr source packetSentToUpper
attr title "packets passed up, count"
vector 290 WirelessC.host71.udp droppedPkWrongPort:vector(count) ETV
attr interpolationmode none
attr recordingmode vector(count)
attr source packetDropReasonIsNoPortFound(packetDropped)
attr title "packets dropped (wrong port), count"
vector 291 WirelessC.host71.udp droppedPkBadChecksum:vector(count) ETV
attr interpolationmode none
attr recordingmode vector(count)
attr source packetDropReasonIsIncorrectlyReceived(packetDropped)
attr title "packets dropped (checksum error), count"
vector 292 WirelessC.host72.wlan[0].mac.queue queueLength:vector ETV
attr autoWarmupFilter false
attr interpolationmode sample-hold
attr recordingmode vector
attr source "warmup(count(packetPushed) - count(packetPulled) - count(packetRemoved) - count(packetDropped))"
attr title "queue length"
attr type int
vector 293 WirelessC.host72.udp passedUpPk:vector(count) ETV
attr interpolationmode none
attr recordingmode vector(count)
attr source packetSentToUpper
attr title "packets passed up, count"
vector 294 WirelessC.host72.udp droppedPkWrongPort:vector(count) ETV
attr interpolationmode none
attr recordingmode vector(count)
attr source packetDropReasonIsNoPortFound(packetDropped)
attr title "packets dropped (wrong port), count"
vector 295 WirelessC.host72.udp droppedPkBadChecksum:vector(count) ETV
attr interpolationmode none
attr recordingmode vector(count)
attr source packetDropReasonIsIncorrectlyReceived(packetDropped)
attr title "packets dropped (checksum error), count"
vector 296 WirelessC.host73.wlan[0].mac.queue queueLength:vector ETV
attr autoWarmupFilter false
attr interpolationmode sample-hold
attr recordingmode vector
attr source "warmup(count(packetPushed) - count(packetPulled) - count(packetRemoved) - count(packetDropped))"
attr title "queue length"
attr type int
vector 297 WirelessC.host73.udp passedUpPk:vector(count) ETV
attr interpolationmode none
attr recordingmode vector(count)
attr source packetSentToUpper
attr title "packets passed up, count"
vector 298 WirelessC.host73.udp droppedPkWrongPort:vector(count) ETV
attr interpolationmode none
attr recordingmode vector(count)
attr source packetDropReasonIsNoPortFound(packetDropped)
attr title "packets dropped (wrong port), count"
vector 299 WirelessC.host73.udp droppedPkBadChecksum:vector(count) ETV
attr interpolationmode none
attr recordingmode vector(count)
attr source packetDropReasonIsIncorrectlyReceived(packetDropped)
attr title "packets dropped (checksum error), count"
vector 300 WirelessC.host74.wlan[0].mac.queue queueLength:vector ETV
attr autoWarmupFilter false
attr interpolationmode sample-hold
attr recordingmode vector
attr source "warmup(count(packetPushed) - count(packetPulled) - count(packetRemoved) - count(packetDropped))"
attr title "queue length"
attr type int
vector 301 WirelessC.host74.udp passedUpPk:vector(count) ETV
attr interpolationmode none
attr recordingmode vector(count)
attr source packetSentToUpper
attr title "packets passed up, count"
vector 302 WirelessC.host74.udp droppedPkWrongPort:vector(count) ETV
attr interpolationmode none
attr recordingmode vector(count)
attr source packetDropReasonIsNoPortFound(packetDropped)
attr title "packets dropped (wrong port), count"
vector 303 WirelessC.host74.udp droppedPkBadChecksum:vector(count) ETV
attr interpolationmode none
attr recordingmode vector(count)
attr source packetDropReasonIsIncorrectlyReceived(packetDropped)
attr title "packets dropped (checksum error), count"
vector 304 WirelessC.host75.wlan[0].mac.queue queueLength:vector ETV
attr autoWarmupFilter false
attr interpolationmode sample-hold
attr recordingmode vector
attr source "warmup(count(packetPushed) - count(packetPulled) - count(packetRemoved) - count(packetDropped))"
attr title "queue length"
attr type int
vector 305 WirelessC.host75.udp passedUpPk:vector(count) ETV
attr interpolationmode none
attr recordingmode vector(count)
attr source packetSentToUpper
attr title "packets passed up, count"
vector 306 WirelessC.host75.udp droppedPkWrongPort:vector(count) ETV
attr interpolationmode none
attr recordingmode vector(count)
attr source packetDropReasonIsNoPortFound(packetDropped)
attr title "packets dropped (wrong port), count"
vector 307 WirelessC.host75.udp droppedPkBadChecksum:vector(count) ETV
attr interpolationmode none
attr recordingmode vector(count)
attr source packetDropReasonIsIncorrectlyReceived(packetDropped)
attr title "packets dropped (checksum error), count"
vector 308 WirelessC.host76.wlan[0].mac.queue queueLength:vector ETV
attr autoWarmupFilter false
attr interpolationmode sample-hold
attr recordingmode vector
attr source "warmup(count(packetPushed) - count(packetPulled) - count(packetRemoved) - count(packetDropped))"
attr title "queue length"
attr type int
vector 309 WirelessC.host76.udp passedUpPk:vector(count) ETV
attr interpolationmode none
attr recordingmode vector(count)
attr source packetSentToUpper
attr title "packets passed up, count"
vector 310 WirelessC.host76.udp droppedPkWrongPort:vector(count) ETV
attr interpolationmode none
attr recordingmode vector(count)
attr source packetDropReasonIsNoPortFound(packetDropped)
attr title "packets dropped (wrong port), count"
vector 311 WirelessC.host76.udp droppedPkBadChecksum:vector(count) ETV
attr interpolationmode none
attr recordingmode vector(count)
attr source packetDropReasonIsIncorrectlyReceived(packetDropped)
attr title "packets dropped (checksum error), count"
vector 312 WirelessC.host77.wlan[0].mac.queue queueLength:vector ETV
attr autoWarmupFilter false
attr interpolationmode sample-hold
attr recordingmode vector
attr source "warmup(count(packetPushed) - count(packetPulled) - count(packetRemoved) - count(packetDropped))"
attr title "queue length"
attr type int
vector 313 WirelessC.host77.udp passedUpPk:vector(count) ETV
attr interpolationmode none
attr recordingmode vector(count)
attr source packetSentToUpper
attr title "packets passed up, count"
vector 314 WirelessC.host77.udp droppedPkWrongPort:vector(count) ETV
attr interpolationmode none
attr recordingmode vector(count)
attr source packetDropReasonIsNoPortFound(packetDropped)
attr title "packets dropped (wrong port), count"
[...]
10	150070 10 0 0 0 0 1 0 0 0 0
11	150080 10 0 0 0 0 1 0 0 0 0
12	150090 40 0 0 0 0 4 0 0 0 0
13	150130 10 0 0 0 0 1 0 0 0 0
14	150140 10 0 0 0 0 1 0 0 0 0
15	150150 10 0 0 0 0 1 0 0 0 0
16	150160 40 0 0 0 0 4 0 0 0 0
17	150200 10 0 0 0 0 1 0 0 0 0
18	150210 10 0 0 0 0 1 0 0 0 0
19	150220 10 0 0 0 0 1 0 0 0 0
20	150230 40 0 0 0 0 4 0 0 0 0
21	150270 10 0 0 0 0 1 0 0 0 0
22	150280 10 0 0 0 0 1 0 0 0 0
23	150290 10 0 0 0 0 1 0 0 0 0
24	150300 40 0 0 0 0 4 0 0 0 0
25	150340 10 0 0 0 0 1 0 0 0 0
26	150350 10 0 0 0 0 1 0 0 0 0
27	150360 10 0 0 0 0 1 0 0 0 0
28	150370 40 0 0 0 0 4 0 0 0 0
29	150410 10 0 0 0 0 1 0 0 0 0
30	150420 10 0 0 0 0 1 0 0 0 0
31	150430 10 0 0 0 0 1 0 0 0 0
32	150440 40 0 0 0 0 4 0 0 0 0
33	150480 10 0 0 0 0 1 0 0 0 0
34	150490 10 0 0 0 0 1 0 0 0 0
35	150500 10 0 0 0 0 1 0 0 0 0
36	150510 40 0 0 0 0 4 0 0 0 0
37	150550 10 0 0 0 0 1 0 0 0 0
38	150560 10 0 0 0 0 1 0 0 0 0
39	150570 10 0 0 0 0 1 0 0 0 0
40	150580 40 0 0 0 0 4 0 0 0 0
41	150620 10 0 0 0 0 1 0 0 0 0
42	150630 10 0 0 0 0 1 0 0 0 0
43	150640 10 0 0 0 0 1 0 0 0 0
44	150650 40 0 0 0 0 4 0 0 0 0
45	150690 10 0 0 0 0 1 0 0 0 0
46	150700 10 0 0 0 0 1 0 0 0 0
47	150710 10 0 0 0 0 1 0 0 0 0
48	150720 40 0 0 0 0 4 0 0 0 0
49	150760 10 0 0 0 0 1 0 0 0 0
50	150770 10 0 0 0 0 1 0 0 0 0
51	150780 10 0 0 0 0 1 0 0 0 0
52	150790 40 0 0 0 0 4 0 0 0 0
53	150830 10 0 0 0 0 1 0 0 0 0
54	150840 10 0 0 0 0 1 0 0 0 0
55	150850 10 0 0 0 0 1 0 0 0 0
56	150860 40 0 0 0 0 4 0 0 0 0
57	150900 10 0 0 0 0 1 0 0 0 0
58	150910 10 0 0 0 0 1 0 0 0 0
59	150920 10 0 0 0 0 1 0 0 0 0
60	150930 40 0 0 0 0 4 0 0 0 0
61	150970 10 0 0 0 0 1 0 0 0 0
62	150980 10 0 0 0 0 1 0 0 0 0
63	150990 10 0 0 0 0 1 0 0 0 0
64	151000 40 0 0 0 0 4 0 0 0 0
65	151040 10 0 0 0 0 1 0 0 0 0
66	151050 10 0 0 0 0 1 0 0 0 0
67	151060 10 0 0 0 0 1 0 0 0 0
68	151070 40 0 0 0 0 4 0 0 0 0
69	151110 10 0 0 0 0 1 0 0 0 0
70	151120 10 0 0 0 0 1 0 0 0 0
71	151130 10 0 0 0 0 1 0 0 0 0
72	151140 40 0 0 0 0 4 0 0 0 0
73	151180 10 0 0 0 0 1 0 0 0 0
74	151190 10 0 0 0 0 1 0 0 0 0
75	151200 10 0 0 0 0 1 0 0 0 0
76	151210 40 0 0 0 0 4 0 0 0 0
77	151250 10 0 0 0 0 1 0 0 0 0
78	151260 10 0 0 0 0 1 0 0 0 0
79	151270 10 0 0 0 0 1 0 0 0 0
80	151280 40 0 0 0 0 4 0 0 0 0
81	151320 10 0 0 0 0 1 0 0 0 0
82	151330 10 0 0 0 0 1 0 0 0 0
83	151340 10 0 0 0 0 1 0 0 0 0
84	151350 40 0 0 0 0 4 0 0 0 0
85	151390 10 0 0 0 0 1 0 0 0 0
86	151400 10 0 0 0 0 1 0 0 0 0
87	151410 10 0 0 0 0 1 0 0 0 0
88	151420 40 0 0 0 0 4 0 0 0 0
89	151460 10 0 0 0 0 1 0 0 0 0
90	151470 10 0 0 0 0 1 0 0 0 0
91	151480 10 0 0 0 0 1 0 0 0 0
92	151490 40 0 0 0 0 4 0 0 0 0
93	151530 10 0 0 0 0 1 0 0 0 0
94	151540 10 0 0 0 0 1 0 0 0 0
95	151550 10 0 0 0 0 1 0 0 0 0
96	151560 40 0 0 0 0 4 0 0 0 0
97	151600 10 0 0 0 0 1 0 0 0 0
98	151610 10 0 0 0 0 1 0 0 0 0
99	151620 10 0 0 0 0 1 0 0 0 0
100	151630 44 0 0 0 0 4 0 0 0 0
101	151674 11 0 0 0 0 1 0 0 0 0
102	151685 11 0 0 0 0 1 0 0 0 0
103	151696 11 0 0 0 0 1 0 0 0 0
104	151707 44 0 0 0 0 4 0 0 0 0
105	151751 11 0 0 0 0 1 0 0 0 0
106	151762 11 0 0 0 0 1 0 0 0 0
107	151773 11 0 0 0 0 1 0 0 0 0
108	151784 44 0 0 0 0 4 0 0 0 0
109	151828 11 0 0 0 0 1 0 0 0 0
110	151839 11 0 0 0 0 1 0 0 0 0
111	151850 11 0 0 0 0 1 0 0 0 0
112	151861 44 0 0 0 0 4 0 0 0 0
113	151905 11 0 0 0 0 1 0 0 0 0
114	151916 11 0 0 0 0 1 0 0 0 0
115	151927 11 0 0 0 0 1 0 0 0 0
116	151938 44 0 0 0 0 4 0 0 0 0
117	151982 11 0 0 0 0 1 0 0 0 0
118	151993 11 0 0 0 0 1 0 0 0 0
119	152004 11 0 0 0 0 1 0 0 0 0
120	152015 44 0 0 0 0 4 0 0 0 0
121	152059 11 0 0 0 0 1 0 0 0 0
122	152070 11 0 0 0 0 1 0 0 0 0
123	152081 11 0 0 0 0 1 0 0 0 0
124	152092 44 0 0 0 0 4 0 0 0 0
125	152136 11 0 0 0 0 1 0 0 0 0
126	152147 11 0 0 0 0 1 0 0 0 0
127	152158 11 0 0 0 0 1 0 0 0 0
128	152169 44 0 0 0 0 4 0 0 0 0
129	152213 11 0 0 0 0 1 0 0 0 0
130	152224 11 0 0 0 0 1 0 0 0 0
131	152235 11 0 0 0 0 1 0 0 0 0
132	152246 44 0 0 0 0 4 0 0 0 0
133	152290 11 0 0 0 0 1 0 0 0 0
134	152301 11 0 0 0 0 1 0 0 0 0
135	152312 11 0 0 0 0 1 0 0 0 0
136	152323 44 0 0 0 0 4 0 0 0 0
137	152367 11 0 0 0 0 1 0 0 0 0
138	152378 11 0 0 0 0 1 0 0 0 0
139	152389 11 0 0 0 0 1 0 0 0 0
140	152400 44 0 0 0 0 4 0 0 0 0
141	152444 11 0 0 0 0 1 0 0 0 0
142	152455 11 0 0 0 0 1 0 0 0 0
143	152466 11 0 0 0 0 1 0 0 0 0
144	152477 44 0 0 0 0 4 0 0 0 0
145	152521 11 0 0 0 0 1 0 0 0 0
146	152532 11 0 0 0 0 1 0 0 0 0
147	152543 11 0 0 0 0 1 0 0 0 0
148	152554 44 0 0 0 0 4 0 0 0 0
149	152598 11 0 0 0 0 1 0 0 0 0
150	152609 11 0 0 0 0 1 0 0 0 0
151	152620 11 0 0 0 0 1 0 0 0 0
152	152631 44 0 0 0 0 4 0 0 0 0
153	152675 11 0 0 0 0 1 0 0 0 0
154	152686 11 0 0 0 0 1 0 0 0 0
155	152697 11 0 0 0 0 1 0 0 0 0
156	152708 44 0 0 0 0 4 0 0 0 0
157	152752 11 0 0 0 0 1 0 0 0 0
158	152763 11 0 0 0 0 1 0 0 0 0
159	152774 11 0 0 0 0 1 0 0 0 0
160	152785 44 0 0 0 0 4 0 0 0 0
161	152829 11 0 0 0 0 1 0 0 0 0
162	152840 11 0 0 0 0 1 0 0 0 0
163	152851 11 0 0 0 0 1 0 0 0 0
164	152862 44 0 0 0 0 4 0 0 0 0
165	152906 11 0 0 0 0 1 0 0 0 0
166	152917 11 0 0 0 0 1 0 0 0 0
167	152928 11 0 0 0 0 1 0 0 0 0
168	152939 44 0 0 0 0 4 0 0 0 0
169	152983 11 0 0 0 0 1 0 0 0 0
170	152994 11 0 0 0 0 1 0 0 0 0
171	153005 11 0 0 0 0 1 0 0 0 0
172	153016 44 0 0 0 0 4 0 0 0 0
173	153060 11 0 0 0 0 1 0 0 0 0
174	153071 11 0 0 0 0 1 0 0 0 0
175	153082 11 0 0 0 0 1 0 0 0 0
176	153093 44 0 0 0 0 4 0 0 0 0
177	153137 11 0 0 0 0 1 0 0 0 0
178	153148 11 0 0 0 0 1 0 0 0 0
179	153159 11 0 0 0 0 1 0 0 0 0
180	153170 44 0 0 0 0 4 0 0 0 0
181	153214 11 0 0 0 0 1 0 0 0 0
182	153225 11 0 0 0 0 1 0 0 0 0
183	153236 11 0 0 0 0 1 0 0 0 0
184	153247 44 0 0 0 0 4 0 0 0 0
185	153291 11 0 0 0 0 1 0 0 0 0
186	153302 11 0 0 0 0 1 0 0 0 0
187	153313 11 0 0 0 0 1 0 0 0 0
188	153324 44 0 0 0 0 4 0 0 0 0
189	153368 11 0 0 0 0 1 0 0 0 0
190	153379 11 0 0 0 0 1 0 0 0 0
191	153390 11 0 0 0 0 1 0 0 0 0
192	153401 44 0 0 0 0 4 0 0 0 0
193	153445 11 0 0 0 0 1 0 0 0 0
194	153456 11 0 0 0 0 1 0 0 0 0
195	153467 11 0 0 0 0 1 0 0 0 0
196	153478 44 0 0 0 0 4 0 0 0 0
197	153522 11 0 0 0 0 1 0 0 0 0
198	153533 11 0 0 0 0 1 0 0 0 0
199	153544 11 0 0 0 0 1 0 0 0 0
200	153555 44 0 0 0 0 4 0 0 0 0
201	153599 11 0 0 0 0 1 0 0 0 0
202	153610 11 0 0 0 0 1 0 0 0 0
203	153621 11 0 0 0 0 1 0 0 0 0
204	153632 44 0 0 0 0 4 0 0 0 0
205	153676 11 0 0 0 0 1 0 0 0 0
206	153687 11 0 0 0 0 1 0 0 0 0
207	153698 11 0 0 0 0 1 0 0 0 0
208	153709 44 0 0 0 0 4 0 0 0 0
209	153753 11 0 0 0 0 1 0 0 0 0
210	153764 11 0 0 0 0 1 0 0 0 0
211	153775 11 0 0 0 0 1 0 0 0 0
212	153786 44 0 0 0 0 4 0 0 0 0
213	153830 11 0 0 0 0 1 0 0 0 0
214	153841 11 0 0 0 0 1 0 0 0 0
215	153852 11 0 0 0 0 1 0 0 0 0
216	153863 44 0 0 0 0 4 0 0 0 0
217	153907 11 0 0 0 0 1 0 0 0 0
218	153918 11 0 0 0 0 1 0 0 0 0
219	153929 11 0 0 0 0 1 0 0 0 0
220	153940 44 0 0 0 0 4 0 0 0 0
221	153984 11 0 0 0 0 1 0 0 0 0
222	153995 11 0 0 0 0 1 0 0 0 0
223	154006 11 0 0 0 0 1 0 0 0 0
224	154017 44 0 0 0 0 4 0 0 0 0
225	154061 11 0 0 0 0 1 0 0 0 0
226	154072 11 0 0 0 0 1 0 0 0 0
227	154083 11 0 0 0 0 1 0 0 0 0
228	154094 44 0 0 0 0 4 0 0 0 0
229	154138 11 0 0 0 0 1 0 0 0 0
230	154149 11 0 0 0 0 1 0 0 0 0
231	154160 11 0 0 0 0 1 0 0 0 0
232	154171 44 0 0 0 0 4 0 0 0 0
233	154215 11 0 0 0 0 1 0 0 0 0
234	154226 11 0 0 0 0 1 0 0 0 0
235	154237 11 0 0 0 0 1 0 0 0 0
236	154248 44 0 0 0 0 4 0 0 0 0
237	154292 11 0 0 0 0 1 0 0 0 0
238	154303 11 0 0 0 0 1 0 0 0 0
239	154314 11 0 0 0 0 1 0 0 0 0
240	154325 44 0 0 0 0 4 0 0 0 0
241	154369 11 0 0 0 0 1 0 0 0 0
242	154380 11 0 0 0 0 1 0 0 0 0
243	154391 11 0 0 0 0 1 0 0 0 0
244	154402 44 0 0 0 0 4 0 0 0 0
245	154446 11 0 0 0 0 1 0 0 0 0
246	154457 11 0 0 0 0 1 0 0 0 0
247	154468 11 0 0 0 0 1 0 0 0 0
248	154479 44 0 0 0 0 4 0 0 0 0
249	154523 11 0 0 0 0 1 0 0 0 0
250	154534 11 0 0 0 0 1 0 0 0 0
251	154545 11 0 0 0 0 1 0 0 0 0
252	154556 44 0 0 0 0 4 0 0 0 0
253	154600 11 0 0 0 0 1 0 0 0 0
254	154611 11 0 0 0 0 1 0 0 0 0
255	154622 11 0 0 0 0 1 0 0 0 0
256	154633 44 0 0 0 0 4 0 0 0 0
257	154677 11 0 0 0 0 1 0 0 0 0
258	154688 11 0 0 0 0 1 0 0 0 0
259	154699 11 0 0 0 0 1 0 0 0 0
260	154710 44 0 0 0 0 4 0 0 0 0
261	154754 11 0 0 0 0 1 0 0 0 0
262	154765 11 0 0 0 0 1 0 0 0 0
263	154776 11 0 0 0 0 1 0 0 0 0
264	154787 44 0 0 0 0 4 0 0 0 0
265	154831 11 0 0 0 0 1 0 0 0 0
266	154842 11 0 0 0 0 1 0 0 0 0
267	154853 11 0 0 0 0 1 0 0 0 0
268	154864 44 0 0 0 0 4 0 0 0 0
269	154908 11 0 0 0 0 1 0 0 0 0
270	154919 11 0 0 0 0 1 0 0 0 0
271	154930 11 0 0 0 0 1 0 0 0 0
272	154941 44 0 0 0 0 4 0 0 0 0
273	154985 11 0 0 0 0 1 0 0 0 0
274	154996 11 0 0 0 0 1 0 0 0 0
275	155007 11 0 0 0 0 1 0 0 0 0
276	155018 44 0 0 0 0 4 0 0 0 0
277	155062 11 0 0 0 0 1 0 0 0 0
278	155073 11 0 0 0 0 1 0 0 0 0
279	155084 11 0 0 0 0 1 0 0 0 0
280	155095 44 0 0 0 0 4 0 0 0 0
281	155139 11 0 0 0 0 1 0 0 0 0
282	155150 11 0 0 0 0 1 0 0 0 0
283	155161 11 0 0 0 0 1 0 0 0 0
284	155172 44 0 0 0 0 4 0 0 0 0
285	155216 11 0 0 0 0 1 0 0 0 0
286	155227 11 0 0 0 0 1 0 0 0 0
287	155238 11 0 0 0 0 1 0 0 0 0
288	155249 44 0 0 0 0 4 0 0 0 0
289	155293 11 0 0 0 0 1 0 0 0 0
290	155304 11 0 0 0 0 1 0 0 0 0
291	155315 11 0 0 0 0 1 0 0 0 0
292	155326 44 0 0 0 0 4 0 0 0 0
293	155370 11 0 0 0 0 1 0 0 0 0
294	155381 11 0 0 0 0 1 0 0 0 0
295	155392 11 0 0 0 0 1 0 0 0 0
296	155403 44 0 0 0 0 4 0 0 0 0
297	155447 11 0 0 0 0 1 0 0 0 0
298	155458 11 0 0 0 0 1 0 0 0 0
299	155469 11 0 0 0 0 1 0 0 0 0
300	155480 44 0 0 0 0 4 0 0 0 0
301	155524 11 0 0 0 0 1 0 0 0 0
302	155535 11 0 0 0 0 1 0 0 0 0
303	155546 11 0 0 0 0 1 0 0 0 0
304	155557 44 0 0 0 0 4 0 0 0 0
305	155601 11 0 0 0 0 1 0 0 0 0
306	155612 11 0 0 0 0 1 0 0 0 0
307	155623 11 0 0 0 0 1 0 0 0 0
308	155634 44 0 0 0 0 4 0 0 0 0
309	155678 11 0 0 0 0 1 0 0 0 0
310	155689 11 0 0 0 0 1 0 0 0 0
311	155700 11 0 0 0 0 1 0 0 0 0
312	155711 44 0 0 0 0 4 0 0 0 0
313	155755 11 0 0 0 0 1 0 0 0 0
314	155766 11 0 0 0 0 1 0 0 0 0
315	155777 11 0 0 0 0 1 0 0 0 0
316	155788 44 0 0 0 0 4 0 0 0 0
317	155832 11 0 0 0 0 1 0 0 0 0
318	155843 11 0 0 0 0 1 0 0 0 0
319	155854 11 0 0 0 0 1 0 0 0 0
320	155865 44 0 0 0 0 4 0 0 0 0
321	155909 11 0 0 0 0 1 0 0 0 0
322	155920 11 0 0 0 0 1 0 0 0 0
323	155931 11 0 0 0 0 1 0 0 0 0
324	155942 44 0 0 0 0 4 0 0 0 0
325	155986 11 0 0 0 0 1 0 0 0 0
326	155997 11 0 0 0 0 1 0 0 0 0
327	156008 11 0 0 0 0 1 0 0 0 0
328	156019 44 0 0 0 0 4 0 0 0 0
329	156063 11 0 0 0 0 1 0 0 0 0
330	156074 11 0 0 0 0 1 0 0 0 0
331	156085 11 0 0 0 0 1 0 0 0 0
332	156096 44 0 0 0 0 4 0 0 0 0
333	156140 11 0 0 0 0 1 0 0 0 0
334	156151 11 0 0 0 0 1 0 0 0 0
335	156162 11 0 0 0 0 1 0 0 0 0
336	156173 44 0 0 0 0 4 0 0 0 0
337	156217 11 0 0 0 0 1 0 0 0 0
338	156228 11 0 0 0 0 1 0 0 0 0
339	156239 11 0 0 0 0 1 0 0 0 0
340	156250 44 0 0 0 0 4 0 0 0 0
341	156294 11 0 0 0 0 1 0 0 0 0
342	156305 11 0 0 0 0 1 0 0 0 0
343	156316 11 0 0 0 0 1 0 0 0 0
344	156327 44 0 0 0 0 4 0 0 0 0
345	156371 11 0 0 0 0 1 0 0 0 0
346	156382 11 0 0 0 0 1 0 0 0 0
347	156393 11 0 0 0 0 1 0 0 0 0
348	156404 44 0 0 0 0 4 0 0 0 0
349	156448 11 0 0 0 0 1 0 0 0 0
350	156459 11 0 0 0 0 1 0 0 0 0
351	156470 11 0 0 0 0 1 0 0 0 0
352	156481 44 0 0 0 0 4 0 0 0 0
353	156525 11 0 0 0 0 1 0 0 0 0
354	156536 11 0 0 0 0 1 0 0 0 0
355	156547 11 0 0 0 0 1 0 0 0 0
356	156558 44 0 0 0 0 4 0 0 0 0
357	156602 11 0 0 0 0 1 0 0 0 0
358	156613 11 0 0 0 0 1 0 0 0 0
359	156624 11 0 0 0 0 1 0 0 0 0
360	156635 44 0 0 0 0 4 0 0 0 0
361	156679 11 0 0 0 0 1 0 0 0 0
362	156690 11 0 0 0 0 1 0 0 0 0
363	156701 11 0 0 0 0 1 0 0 0 0
364	156712 44 0 0 0 0 4 0 0 0 0
365	156756 11 0 0 0 0 1 0 0 0 0
366	156767 11 0 0 0 0 1 0 0 0 0
367	156778 11 0 0 0 0 1 0 0 0 0
368	156789 44 0 0 0 0 4 0 0 0 0
369	156833 11 0 0 0 0 1 0 0 0 0
370	156844 11 0 0 0 0 1 0 0 0 0
371	156855 11 0 0 0 0 1 0 0 0 0
372	156866 44 0 0 0 0 4 0 0 0 0
373	156910 11 0 0 0 0 1 0 0 0 0
374	156921 11 0 0 0 0 1 0 0 0 0
375	156932 11 0 0 0 0 1 0 0 0 0
376	156943 44 0 0 0 0 4 0 0 0 0
377	156987 11 0 0 0 0 1 0 0 0 0
378	156998 11 0 0 0 0 1 0 0 0 0
379	157009 11 0 0 0 0 1 0 0 0 0
380	157020 44 0 0 0 0 4 0 0 0 0
381	157064 11 0 0 0 0 1 0 0 0 0
382	157075 11 0 0 0 0 1 0 0 0 0
383	157086 11 0 0 0 0 1 0 0 0 0
384	157097 44 0 0 0 0 4 0 0 0 0
385	157141 11 0 0 0 0 1 0 0 0 0
386	157152 11 0 0 0 0 1 0 0 0 0
387	157163 11 0 0 0 0 1 0 0 0 0
388	157174 44 0 0 0 0 4 0 0 0 0
389	157218 11 0 0 0 0 1 0 0 0 0
390	157229 11 0 0 0 0 1 0 0 0 0
391	157240 11 0 0 0 0 1 0 0 0 0
392	157251 44 0 0 0 0 4 0 0 0 0
393	157295 11 0 0 0 0 1 0 0 0 0
394	157306 11 0 0 0 0 1 0 0 0 0
395	157317 11 0 0 0 0 1 0 0 0 0
396	157328 44 0 0 0 0 4 0 0 0 0
397	157372 11 0 0 0 0 1 0 0 0 0
398	157383 11 0 0 0 0 1 0 0 0 0
399	157394 11 0 0 0 0 1 0 0 0 0
400	157405 44 0 0 0 0 4 0 0 0 0
401	157449 11 0 0 0 0 1 0 0 0 0
402	157460 11 0 0 0 0 1 0 0 0 0
403	157471 11 0 0 0 0 1 0 0 0 0
404	157482 4562 0 18595 0 4.269048261589 169 0 3 417 1083
405	162044 33 0 0 0 0 3 0 2 2 4
406	162077 33 0 0 0 0 3 0 2 2 4
407	162110 33 0 0 0 0 3 0 2 2 4
408	162143 33 0 0 0 0 3 0 2 2 4
409	162176 33 0 0 0 0 3 0 2 2 4
410	162209 33 0 0 0 0 3 0 2 2 4
411	162242 33 0 0 0 0 3 0 2 2 4
412	162275 33 0 0 0 0 3 0 2 2 4
413	162308 33 0 0 0 0 3 0 2 2 4
414	162341 33 0 0 0 0 3 0 2 2 4
415	162374 33 0 0 0 0 3 0 2 2 4
416	162407 33 0 0 0 0 3 0 2 2 4
417	162440 33 0 0 0 0 3 0 2 2 4
418	162473 33 0 0 0 0 3 0 2 2 4
419	162506 33 0 0 0 0 3 0 2 2 4
420	162539 33 0 0 0 0 3 0 2 2 4
421	162572 33 0 0 0 0 3 0 2 2 4
422	162605 33 0 0 0 0 3 0 2 2 4
423	162638 33 0 0 0 0 3 0 2 2 4
424	162671 33 0 0 0 0 3 0 2 2 4
425	162704 33 0 0 0 0 3 0 2 2 4
426	162737 33 0 0 0 0 3 0 2 2 4
427	162770 33 0 0 0 0 3 0 2 2 4
428	162803 33 0 0 0 0 3 0 2 2 4
429	162836 33 0 0 0 0 3 0 2 2 4
430	162869 33 0 0 0 0 3 0 2 2 4
431	162902 33 0 0 0 0 3 0 2 2 4
432	162935 33 0 0 0 0 3 0 2 2 4
433	162968 33 0 0 0 0 3 0 2 2 4
434	163001 33 0 0 0 0 3 0 2 2 4
435	163034 33 0 0 0 0 3 0 2 2 4
436	163067 33 0 0 0 0 3 0 2 2 4
437	163100 33 0 0 0 0 3 0 2 2 4
438	163133 33 0 0 0 0 3 0 2 2 4
439	163166 33 0 0 0 0 3 0 2 2 4
440	163199 33 0 0 0 0 3 0 2 2 4
441	163232 33 0 0 0 0 3 0 2 2 4
442	163265 33 0 0 0 0 3 0 2 2 4
443	163298 33 0 0 0 0 3 0 2 2 4
444	163331 33 0 0 0 0 3 0 2 2 4
445	163364 33 0 0 0 0 3 0 2 2 4
446	163397 33 0 0 0 0 3 0 2 2 4
447	163430 33 0 0 0 0 3 0 2 2 4
448	163463 33 0 0 0 0 3 0 2 2 4
449	163496 33 0 0 0 0 3 0 2 2 4
450	163529 33 0 0 0 0 3 0 2 2 4
451	163562 33 0 0 0 0 3 0 2 2 4
452	163595 33 0 0 0 0 3 0 2 2 4
453	163628 33 0 0 0 0 3 0 2 2 4
454	163661 33 0 0 0 0 3 0 2 2 4
455	163694 33 0 0 0 0 3 0 2 2 4
456	163727 33 0 0 0 0 3 0 2 2 4
457	163760 33 0 0 0 0 3 0 2 2 4
458	163793 33 0 0 0 0 3 0 2 2 4
459	163826 33 0 0 0 0 3 0 2 2 4
460	163859 33 0 0 0 0 3 0 2 2 4
461	163892 33 0 0 0 0 3 0 2 2 4
462	163925 33 0 0 0 0 3 0 2 2 4
463	163958 33 0 0 0 0 3 0 2 2 4
464	163991 33 0 0 0 0 3 0 2 2 4
465	164024 33 0 0 0 0 3 0 2 2 4
466	164057 33 0 0 0 0 3 0 2 2 4
467	164090 33 0 0 0 0 3 0 2 2 4
468	164123 33 0 0 0 0 3 0 2 2 4
469	164156 33 0 0 0 0 3 0 2 2 4
470	164189 33 0 0 0 0 3 0 2 2 4
471	164222 33 0 0 0 0 3 0 2 2 4
472	164255 33 0 0 0 0 3 0 2 2 4
473	164288 33 0 0 0 0 3 0 2 2 4
474	164321 33 0 0 0 0 3 0 2 2 4
475	164354 33 0 0 0 0 3 0 2 2 4
476	164387 33 0 0 0 0 3 0 2 2 4
477	164420 33 0 0 0 0 3 0 2 2 4
478	164453 33 0 0 0 0 3 0 2 2 4
479	164486 33 0 0 0 0 3 0 2 2 4
480	164519 33 0 0 0 0 3 0 2 2 4
481	164552 33 0 0 0 0 3 0 2 2 4
482	164585 33 0 0 0 0 3 0 2 2 4
483	164618 33 0 0 0 0 3 0 2 2 4
484	164651 33 0 0 0 0 3 0 2 2 4
485	164684 33 0 0 0 0 3 0 2 2 4
486	164717 33 0 0 0 0 3 0 2 2 4
487	164750 33 0 0 0 0 3 0 2 2 4
488	164783 33 0 0 0 0 3 0 2 2 4
489	164816 33 0 0 0 0 3 0 2 2 4
490	164849 33 0 0 0 0 3 0 2 2 4
491	164882 33 0 0 0 0 3 0 2 2 4
492	164915 33 0 0 0 0 3 0 2 2 4
493	164948 33 0 0 0 0 3 0 2 2 4
494	164981 33 0 0 0 0 3 0 2 2 4
495	165014 33 0 0 0 0 3 0 2 2 4
496	165047 33 0 0 0 0 3 0 2 2 4
497	165080 33 0 0 0 0 3 0 2 2 4
498	165113 33 0 0 0 0 3 0 2 2 4
499	165146 33 0 0 0 0 3 0 2 2 4
500	165179 33 0 0 0 0 3 0 2 2 4
501	165212 33 0 0 0 0 3 0 2 2 4
502	165245 33 0 0 0 0 3 0 2 2 4
503	165278 33 0 0 0 0 3 0 2 2 4
504	165311 33 0 0 0 0 3 0 2 2 4
505	165344 4540 0 18595 0 4.269048261589 167 0 1 84 84
506	169884 11 0 0 0 0 1 1 1 1 1
507	169895 11 0 0 0 0 1 1 1 1 1
508	169906 11 0 0 0 0 1 1 1 1 1
509	169917 11 0 0 0 0 1 1 1 1 1
510	169928 11 0 0 0 0 1 1 1 1 1
511	169939 11 0 0 0 0 1 1 1 1 1
512	169950 11 0 0 0 0 1 1 1 1 1
513	169961 11 0 0 0 0 1 1 1 1 1
514	169972 11 0 0 0 0 1 1 1 1 1
515	169983 67 0 18596 0 4.269048428829 3 1 3 5 11
516	170050 11 0 0 0 0 1 1 1 1 1
517	170061 11 0 0 0 0 1 1 1 1 1
518	170072 11 0 0 0 0 1 1 1 1 1
519	170083 11 0 0 0 0 1 1 1 1 1
520	170094 11 0 0 0 0 1 1 1 1 1
521	170105 11 0 0 0 0 1 1 1 1 1
522	170116 11 0 0 0 0 1 1 1 1 1
523	170127 11 0 0 0 0 1 1 1 1 1
524	170138 11 0 0 0 0 1 1 1 1 1
525	170149 67 0 18597 0 4.269048428829 3 1 3 5 11
526	170216 11 0 0 0 0 1 1 1 1 1
527	170227 11 0 0 0 0 1 1 1 1 1
528	170238 11 0 0 0 0 1 1 1 1 1
529	170249 11 0 0 0 0 1 1 1 1 1
530	170260 11 0 0 0 0 1 1 1 1 1
531	170271 11 0 0 0 0 1 1 1 1 1
532	170282 11 0 0 0 0 1 1 1 1 1
533	170293 11 0 0 0 0 1 1 1 1 1
534	170304 11 0 0 0 0 1 1 1 1 1
535	170315 11 0 0 0 0 1 1 1 1 1
536	170326 11 0 0 0 0 1 1 1 1 1
537	170337 11 0 0 0 0 1 1 1 1 1
538	170348 11 0 0 0 0 1 1 1 1 1
539	170359 11 0 0 0 0 1 1 1 1 1
540	170370 11 0 0 0 0 1 1 1 1 1
541	170381 11 0 0 0 0 1 1 1 1 1
542	170392 11 0 0 0 0 1 1 1 1 1
543	170403 11 0 0 0 0 1 1 1 1 1
544	170414 11 0 0 0 0 1 1 1 1 1
545	170425 11 0 0 0 0 1 1 1 1 1
546	170436 11 0 0 0 0 1 1 1 1 1
547	170447 11 0 0 0 0 1 1 1 1 1
548	170458 11 0 0 0 0 1 1 1 1 1
549	170469 11 0 0 0 0 1 1 1 1 1
550	170480 11 0 0 0 0 1 1 1 1 1
551	170491 11 0 0 0 0 1 1 1 1 1
552	170502 11 0 0 0 0 1 1 1 1 1
553	170513 11 0 0 0 0 1 1 1 1 1
554	170524 11 0 0 0 0 1 1 1 1 1
555	170535 11 0 0 0 0 1 1 1 1 1
556	170546 11 0 0 0 0 1 1 1 1 1
557	170557 11 0 0 0 0 1 1 1 1 1
558	170568 11 0 0 0 0 1 1 1 1 1
559	170579 11 0 0 0 0 1 1 1 1 1
560	170590 11 0 0 0 0 1 1 1 1 1
561	170601 11 0 0 0 0 1 1 1 1 1
562	170612 11 0 0 0 0 1 1 1 1 1
563	170623 11 0 0 0 0 1 1 1 1 1
564	170634 11 0 0 0 0 1 1 1 1 1
565	170645 11 0 0 0 0 1 1 1 1 1
566	170656 11 0 0 0 0 1 1 1 1 1
567	170667 11 0 0 0 0 1 1 1 1 1
568	170678 11 0 0 0 0 1 1 1 1 1
569	170689 11 0 0 0 0 1 1 1 1 1
570	170700 11 0 0 0 0 1 1 1 1 1
571	170711 11 0 0 0 0 1 1 1 1 1
572	170722 11 0 0 0 0 1 1 1 1 1
573	170733 11 0 0 0 0 1 1 1 1 1
574	170744 11 0 0 0 0 1 1 1 1 1
575	170755 11 0 0 0 0 1 1 1 1 1
576	170766 11 0 0 0 0 1 1 1 1 1
577	170777 11 0 0 0 0 1 1 1 1 1
578	170788 11 0 0 0 0 1 1 1 1 1
579	170799 11 0 0 0 0 1 1 1 1 1
580	170810 11 0 0 0 0 1 1 1 1 1
581	170821 11 0 0 0 0 1 1 1 1 1
582	170832 11 0 0 0 0 1 1 1 1 1
583	170843 11 0 0 0 0 1 1 1 1 1
584	170854 11 0 0 0 0 1 1 1 1 1
585	170865 11 0 0 0 0 1 1 1 1 1
586	170876 11 0 0 0 0 1 1 1 1 1
587	170887 11 0 0 0 0 1 1 1 1 1
588	170898 11 0 0 0 0 1 1 1 1 1
589	170909 11 0 0 0 0 1 1 1 1 1
590	170920 11 0 0 0 0 1 1 1 1 1
591	170931 11 0 0 0 0 1 1 1 1 1
592	170942 11 0 0 0 0 1 1 1 1 1
593	170953 11 0 0 0 0 1 1 1 1 1
594	170964 11 0 0 0 0 1 1 1 1 1
595	170975 11 0 0 0 0 1 1 1 1 1
596	170986 11 0 0 0 0 1 1 1 1 1
597	170997 11 0 0 0 0 1 1 1 1 1
598	171008 11 0 0 0 0 1 1 1 1 1
599	171019 11 0 0 0 0 1 1 1 1 1
600	171030 11 0 0 0 0 1 1 1 1 1
601	171041 11 0 0 0 0 1 1 1 1 1
602	171052 11 0 0 0 0 1 1 1 1 1
603	171063 11 0 0 0 0 1 1 1 1 1
604	171074 11 0 0 0 0 1 1 1 1 1
605	171085 11 0 0 0 0 1 1 1 1 1
606	171096 12751 401 18489 0.007958745046 4.257771147496 419 1000 1000 419000 419000000
607	183847 12751 403 18490 0.007958745046 4.257771147496 419 1008 1008 422352 425730816
608	196598 2347 404 18492 0.007958745046 4.268544261589 83 28 28 2324 65072
609	198945 2347 405 18493 0.007958745046 4.268544261589 83 28 28 2324 65072
610	201292 2347 405 18493 0.007958745046 4.268544261589 83 28 28 2324 65072
611	203639 2347 405 18493 0.007958745046 4.268544261589 83 28 28 2324 65072
612	205986 2264 405 18493 0.007958745046 4.268544261589 83 0 0 0 0
613	208250 9058 405 18595 0.007958745046 4.269048261589 332 0 2 332 498
614	217308 2347 405 18493 0.007958745046 4.268544261589 83 51 51 4233 215883
615	219655 9913 13576 17135 3.007958745046 3.9041609168 322 1028 1028 331016 340284448
616	229568 29 18598 18598 4.269048428829 4.269048428829 1 51 51 51 2601
617	229597 29 18598 18598 4.269048428829 4.269048428829 1 28 28 28 784

